
---------- Begin Simulation Statistics ----------
simSeconds                                   0.577156                       # Number of seconds simulated (Second)
simTicks                                 577156470500                       # Number of ticks simulated (Tick)
finalTick                                577156470500                       # Number of ticks from beginning of simulation (restored from checkpoints and never reset) (Tick)
simFreq                                  1000000000000                       # The number of ticks per simulated second ((Tick/Second))
hostSeconds                                    331.56                       # Real time elapsed on the host (Second)
hostTickRate                               1740728762                       # The number of ticks simulated per host second (ticks/s) ((Tick/Second))
hostMemory                                  406613744                       # Number of bytes of host memory used (Byte)
simInsts                                    118949895                       # Number of instructions simulated (Count)
simOps                                      139094032                       # Number of ops (including micro ops) simulated (Count)
hostInstRate                                   358758                       # Simulator instruction rate (inst/s) ((Count/Second))
hostOpRate                                     419514                       # Simulator op (including micro ops) rate (op/s) ((Count/Second))
system.bridge.power_state.pwrStateResidencyTicks::UNDEFINED 577156470500                       # Cumulative time (in ticks) in various power states (Tick)
system.clk_domain.clock                          1000                       # Clock period in ticks (Tick)
system.cpu.numCycles                        516482369                       # Number of cpu cycles simulated (Cycle)
system.cpu.numWorkItemsStarted                      0                       # Number of work items this cpu started (Count)
system.cpu.numWorkItemsCompleted                    0                       # Number of work items this cpu completed (Count)
system.cpu.instsAdded                       154140426                       # Number of instructions added to the IQ (excludes non-spec) (Count)
system.cpu.nonSpecInstsAdded                  1136438                       # Number of non-speculative instructions added to the IQ (Count)
system.cpu.instsIssued                      154351757                       # Number of instructions issued (Count)
system.cpu.squashedInstsIssued                 191009                       # Number of squashed instructions issued (Count)
system.cpu.squashedInstsExamined             16182832                       # Number of squashed instructions iterated over during squash; mainly for profiling (Count)
system.cpu.squashedOperandsExamined          10838595                       # Number of squashed operands that are examined and possibly removed from graph (Count)
system.cpu.squashedNonSpecRemoved               87365                       # Number of squashed non-spec instructions that were removed (Count)
system.cpu.numIssuedDist::samples           276009744                       # Number of insts issued each cycle (Count)
system.cpu.numIssuedDist::mean               0.559226                       # Number of insts issued each cycle (Count)
system.cpu.numIssuedDist::stdev              1.345701                       # Number of insts issued each cycle (Count)
system.cpu.numIssuedDist::underflows                0      0.00%      0.00% # Number of insts issued each cycle (Count)
system.cpu.numIssuedDist::0                 217239119     78.71%     78.71% # Number of insts issued each cycle (Count)
system.cpu.numIssuedDist::1                  21118031      7.65%     86.36% # Number of insts issued each cycle (Count)
system.cpu.numIssuedDist::2                  12917969      4.68%     91.04% # Number of insts issued each cycle (Count)
system.cpu.numIssuedDist::3                   8645545      3.13%     94.17% # Number of insts issued each cycle (Count)
system.cpu.numIssuedDist::4                   7144040      2.59%     96.76% # Number of insts issued each cycle (Count)
system.cpu.numIssuedDist::5                   3925185      1.42%     98.18% # Number of insts issued each cycle (Count)
system.cpu.numIssuedDist::6                   2669158      0.97%     99.15% # Number of insts issued each cycle (Count)
system.cpu.numIssuedDist::7                   1561456      0.57%     99.71% # Number of insts issued each cycle (Count)
system.cpu.numIssuedDist::8                    789241      0.29%    100.00% # Number of insts issued each cycle (Count)
system.cpu.numIssuedDist::overflows                 0      0.00%    100.00% # Number of insts issued each cycle (Count)
system.cpu.numIssuedDist::min_value                 0                       # Number of insts issued each cycle (Count)
system.cpu.numIssuedDist::max_value                 8                       # Number of insts issued each cycle (Count)
system.cpu.numIssuedDist::total             276009744                       # Number of insts issued each cycle (Count)
system.cpu.statFuBusy::No_OpClass                   0      0.00%      0.00% # attempts to use FU when none available (Count)
system.cpu.statFuBusy::IntAlu                  439550     15.29%     15.29% # attempts to use FU when none available (Count)
system.cpu.statFuBusy::IntMult                   3356      0.12%     15.41% # attempts to use FU when none available (Count)
system.cpu.statFuBusy::IntDiv                  238936      8.31%     23.72% # attempts to use FU when none available (Count)
system.cpu.statFuBusy::FloatAdd                     0      0.00%     23.72% # attempts to use FU when none available (Count)
system.cpu.statFuBusy::FloatCmp                     0      0.00%     23.72% # attempts to use FU when none available (Count)
system.cpu.statFuBusy::FloatCvt                     0      0.00%     23.72% # attempts to use FU when none available (Count)
system.cpu.statFuBusy::FloatMult                    0      0.00%     23.72% # attempts to use FU when none available (Count)
system.cpu.statFuBusy::FloatMultAcc                 0      0.00%     23.72% # attempts to use FU when none available (Count)
system.cpu.statFuBusy::FloatDiv                     0      0.00%     23.72% # attempts to use FU when none available (Count)
system.cpu.statFuBusy::FloatMisc                    0      0.00%     23.72% # attempts to use FU when none available (Count)
system.cpu.statFuBusy::FloatSqrt                    0      0.00%     23.72% # attempts to use FU when none available (Count)
system.cpu.statFuBusy::SimdAdd                      0      0.00%     23.72% # attempts to use FU when none available (Count)
system.cpu.statFuBusy::SimdAddAcc                   0      0.00%     23.72% # attempts to use FU when none available (Count)
system.cpu.statFuBusy::SimdAlu                   1547      0.05%     23.78% # attempts to use FU when none available (Count)
system.cpu.statFuBusy::SimdCmp                   1036      0.04%     23.81% # attempts to use FU when none available (Count)
system.cpu.statFuBusy::SimdCvt                      0      0.00%     23.81% # attempts to use FU when none available (Count)
system.cpu.statFuBusy::SimdMisc                     0      0.00%     23.81% # attempts to use FU when none available (Count)
system.cpu.statFuBusy::SimdMult                     0      0.00%     23.81% # attempts to use FU when none available (Count)
system.cpu.statFuBusy::SimdMultAcc                  0      0.00%     23.81% # attempts to use FU when none available (Count)
system.cpu.statFuBusy::SimdShift                    0      0.00%     23.81% # attempts to use FU when none available (Count)
system.cpu.statFuBusy::SimdShiftAcc                 0      0.00%     23.81% # attempts to use FU when none available (Count)
system.cpu.statFuBusy::SimdDiv                      0      0.00%     23.81% # attempts to use FU when none available (Count)
system.cpu.statFuBusy::SimdSqrt                     0      0.00%     23.81% # attempts to use FU when none available (Count)
system.cpu.statFuBusy::SimdFloatAdd                 0      0.00%     23.81% # attempts to use FU when none available (Count)
system.cpu.statFuBusy::SimdFloatAlu                 0      0.00%     23.81% # attempts to use FU when none available (Count)
system.cpu.statFuBusy::SimdFloatCmp                 0      0.00%     23.81% # attempts to use FU when none available (Count)
system.cpu.statFuBusy::SimdFloatCvt                 0      0.00%     23.81% # attempts to use FU when none available (Count)
system.cpu.statFuBusy::SimdFloatDiv                 0      0.00%     23.81% # attempts to use FU when none available (Count)
system.cpu.statFuBusy::SimdFloatMisc                0      0.00%     23.81% # attempts to use FU when none available (Count)
system.cpu.statFuBusy::SimdFloatMult                0      0.00%     23.81% # attempts to use FU when none available (Count)
system.cpu.statFuBusy::SimdFloatMultAcc             0      0.00%     23.81% # attempts to use FU when none available (Count)
system.cpu.statFuBusy::SimdFloatSqrt                0      0.00%     23.81% # attempts to use FU when none available (Count)
system.cpu.statFuBusy::SimdReduceAdd                0      0.00%     23.81% # attempts to use FU when none available (Count)
system.cpu.statFuBusy::SimdReduceAlu                0      0.00%     23.81% # attempts to use FU when none available (Count)
system.cpu.statFuBusy::SimdReduceCmp                0      0.00%     23.81% # attempts to use FU when none available (Count)
system.cpu.statFuBusy::SimdFloatReduceAdd            0      0.00%     23.81% # attempts to use FU when none available (Count)
system.cpu.statFuBusy::SimdFloatReduceCmp            0      0.00%     23.81% # attempts to use FU when none available (Count)
system.cpu.statFuBusy::SimdAes                      0      0.00%     23.81% # attempts to use FU when none available (Count)
system.cpu.statFuBusy::SimdAesMix                   0      0.00%     23.81% # attempts to use FU when none available (Count)
system.cpu.statFuBusy::SimdSha1Hash                 0      0.00%     23.81% # attempts to use FU when none available (Count)
system.cpu.statFuBusy::SimdSha1Hash2                0      0.00%     23.81% # attempts to use FU when none available (Count)
system.cpu.statFuBusy::SimdSha256Hash               0      0.00%     23.81% # attempts to use FU when none available (Count)
system.cpu.statFuBusy::SimdSha256Hash2              0      0.00%     23.81% # attempts to use FU when none available (Count)
system.cpu.statFuBusy::SimdShaSigma2                0      0.00%     23.81% # attempts to use FU when none available (Count)
system.cpu.statFuBusy::SimdShaSigma3                0      0.00%     23.81% # attempts to use FU when none available (Count)
system.cpu.statFuBusy::SimdPredAlu                  0      0.00%     23.81% # attempts to use FU when none available (Count)
system.cpu.statFuBusy::MemRead                1493452     51.96%     75.77% # attempts to use FU when none available (Count)
system.cpu.statFuBusy::MemWrite                696443     24.23%    100.00% # attempts to use FU when none available (Count)
system.cpu.statFuBusy::FloatMemRead                 0      0.00%    100.00% # attempts to use FU when none available (Count)
system.cpu.statFuBusy::FloatMemWrite                0      0.00%    100.00% # attempts to use FU when none available (Count)
system.cpu.statFuBusy::IprAccess                    0      0.00%    100.00% # attempts to use FU when none available (Count)
system.cpu.statFuBusy::InstPrefetch                 0      0.00%    100.00% # attempts to use FU when none available (Count)
system.cpu.statIssuedInstType_0::No_OpClass        12707      0.01%      0.01% # Number of instructions issued per FU type, per thread (Count)
system.cpu.statIssuedInstType_0::IntAlu     101835617     65.98%     65.98% # Number of instructions issued per FU type, per thread (Count)
system.cpu.statIssuedInstType_0::IntMult       416143      0.27%     66.25% # Number of instructions issued per FU type, per thread (Count)
system.cpu.statIssuedInstType_0::IntDiv         36655      0.02%     66.28% # Number of instructions issued per FU type, per thread (Count)
system.cpu.statIssuedInstType_0::FloatAdd            0      0.00%     66.28% # Number of instructions issued per FU type, per thread (Count)
system.cpu.statIssuedInstType_0::FloatCmp            0      0.00%     66.28% # Number of instructions issued per FU type, per thread (Count)
system.cpu.statIssuedInstType_0::FloatCvt            0      0.00%     66.28% # Number of instructions issued per FU type, per thread (Count)
system.cpu.statIssuedInstType_0::FloatMult            0      0.00%     66.28% # Number of instructions issued per FU type, per thread (Count)
system.cpu.statIssuedInstType_0::FloatMultAcc            0      0.00%     66.28% # Number of instructions issued per FU type, per thread (Count)
system.cpu.statIssuedInstType_0::FloatDiv            0      0.00%     66.28% # Number of instructions issued per FU type, per thread (Count)
system.cpu.statIssuedInstType_0::FloatMisc            0      0.00%     66.28% # Number of instructions issued per FU type, per thread (Count)
system.cpu.statIssuedInstType_0::FloatSqrt            0      0.00%     66.28% # Number of instructions issued per FU type, per thread (Count)
system.cpu.statIssuedInstType_0::SimdAdd         9726      0.01%     66.28% # Number of instructions issued per FU type, per thread (Count)
system.cpu.statIssuedInstType_0::SimdAddAcc            0      0.00%     66.28% # Number of instructions issued per FU type, per thread (Count)
system.cpu.statIssuedInstType_0::SimdAlu        22345      0.01%     66.30% # Number of instructions issued per FU type, per thread (Count)
system.cpu.statIssuedInstType_0::SimdCmp        12622      0.01%     66.31% # Number of instructions issued per FU type, per thread (Count)
system.cpu.statIssuedInstType_0::SimdCvt            0      0.00%     66.31% # Number of instructions issued per FU type, per thread (Count)
system.cpu.statIssuedInstType_0::SimdMisc         9476      0.01%     66.31% # Number of instructions issued per FU type, per thread (Count)
system.cpu.statIssuedInstType_0::SimdMult            0      0.00%     66.31% # Number of instructions issued per FU type, per thread (Count)
system.cpu.statIssuedInstType_0::SimdMultAcc            0      0.00%     66.31% # Number of instructions issued per FU type, per thread (Count)
system.cpu.statIssuedInstType_0::SimdShift            0      0.00%     66.31% # Number of instructions issued per FU type, per thread (Count)
system.cpu.statIssuedInstType_0::SimdShiftAcc            0      0.00%     66.31% # Number of instructions issued per FU type, per thread (Count)
system.cpu.statIssuedInstType_0::SimdDiv            0      0.00%     66.31% # Number of instructions issued per FU type, per thread (Count)
system.cpu.statIssuedInstType_0::SimdSqrt            0      0.00%     66.31% # Number of instructions issued per FU type, per thread (Count)
system.cpu.statIssuedInstType_0::SimdFloatAdd            0      0.00%     66.31% # Number of instructions issued per FU type, per thread (Count)
system.cpu.statIssuedInstType_0::SimdFloatAlu            0      0.00%     66.31% # Number of instructions issued per FU type, per thread (Count)
system.cpu.statIssuedInstType_0::SimdFloatCmp            0      0.00%     66.31% # Number of instructions issued per FU type, per thread (Count)
system.cpu.statIssuedInstType_0::SimdFloatCvt            0      0.00%     66.31% # Number of instructions issued per FU type, per thread (Count)
system.cpu.statIssuedInstType_0::SimdFloatDiv            0      0.00%     66.31% # Number of instructions issued per FU type, per thread (Count)
system.cpu.statIssuedInstType_0::SimdFloatMisc            0      0.00%     66.31% # Number of instructions issued per FU type, per thread (Count)
system.cpu.statIssuedInstType_0::SimdFloatMult            0      0.00%     66.31% # Number of instructions issued per FU type, per thread (Count)
system.cpu.statIssuedInstType_0::SimdFloatMultAcc            0      0.00%     66.31% # Number of instructions issued per FU type, per thread (Count)
system.cpu.statIssuedInstType_0::SimdFloatSqrt            0      0.00%     66.31% # Number of instructions issued per FU type, per thread (Count)
system.cpu.statIssuedInstType_0::SimdReduceAdd            0      0.00%     66.31% # Number of instructions issued per FU type, per thread (Count)
system.cpu.statIssuedInstType_0::SimdReduceAlu            0      0.00%     66.31% # Number of instructions issued per FU type, per thread (Count)
system.cpu.statIssuedInstType_0::SimdReduceCmp            0      0.00%     66.31% # Number of instructions issued per FU type, per thread (Count)
system.cpu.statIssuedInstType_0::SimdFloatReduceAdd            0      0.00%     66.31% # Number of instructions issued per FU type, per thread (Count)
system.cpu.statIssuedInstType_0::SimdFloatReduceCmp            0      0.00%     66.31% # Number of instructions issued per FU type, per thread (Count)
system.cpu.statIssuedInstType_0::SimdAes            0      0.00%     66.31% # Number of instructions issued per FU type, per thread (Count)
system.cpu.statIssuedInstType_0::SimdAesMix            0      0.00%     66.31% # Number of instructions issued per FU type, per thread (Count)
system.cpu.statIssuedInstType_0::SimdSha1Hash            0      0.00%     66.31% # Number of instructions issued per FU type, per thread (Count)
system.cpu.statIssuedInstType_0::SimdSha1Hash2            0      0.00%     66.31% # Number of instructions issued per FU type, per thread (Count)
system.cpu.statIssuedInstType_0::SimdSha256Hash            0      0.00%     66.31% # Number of instructions issued per FU type, per thread (Count)
system.cpu.statIssuedInstType_0::SimdSha256Hash2            0      0.00%     66.31% # Number of instructions issued per FU type, per thread (Count)
system.cpu.statIssuedInstType_0::SimdShaSigma2            0      0.00%     66.31% # Number of instructions issued per FU type, per thread (Count)
system.cpu.statIssuedInstType_0::SimdShaSigma3            0      0.00%     66.31% # Number of instructions issued per FU type, per thread (Count)
system.cpu.statIssuedInstType_0::SimdPredAlu            0      0.00%     66.31% # Number of instructions issued per FU type, per thread (Count)
system.cpu.statIssuedInstType_0::MemRead     30639838     19.85%     86.16% # Number of instructions issued per FU type, per thread (Count)
system.cpu.statIssuedInstType_0::MemWrite     21356628     13.84%    100.00% # Number of instructions issued per FU type, per thread (Count)
system.cpu.statIssuedInstType_0::FloatMemRead            0      0.00%    100.00% # Number of instructions issued per FU type, per thread (Count)
system.cpu.statIssuedInstType_0::FloatMemWrite            0      0.00%    100.00% # Number of instructions issued per FU type, per thread (Count)
system.cpu.statIssuedInstType_0::IprAccess            0      0.00%    100.00% # Number of instructions issued per FU type, per thread (Count)
system.cpu.statIssuedInstType_0::InstPrefetch            0      0.00%    100.00% # Number of instructions issued per FU type, per thread (Count)
system.cpu.statIssuedInstType_0::total      154351757                       # Number of instructions issued per FU type, per thread (Count)
system.cpu.issueRate                         0.298852                       # Inst issue rate ((Count/Cycle))
system.cpu.fuBusy                             2874320                       # FU busy when requested (Count)
system.cpu.fuBusyRate                        0.018622                       # FU busy rate (busy events/executed inst) ((Count/Count))
system.cpu.intInstQueueReads                587575982                       # Number of integer instruction queue reads (Count)
system.cpu.intInstQueueWrites               171382185                       # Number of integer instruction queue writes (Count)
system.cpu.intInstQueueWakeupAccesses       147750021                       # Number of integer instruction queue wakeup accesses (Count)
system.cpu.fpInstQueueReads                         0                       # Number of floating instruction queue reads (Count)
system.cpu.fpInstQueueWrites                        0                       # Number of floating instruction queue writes (Count)
system.cpu.fpInstQueueWakeupAccesses                0                       # Number of floating instruction queue wakeup accesses (Count)
system.cpu.vecInstQueueReads                   202605                       # Number of vector instruction queue reads (Count)
system.cpu.vecInstQueueWrites                  115089                       # Number of vector instruction queue writes (Count)
system.cpu.vecInstQueueWakeupAccesses           93830                       # Number of vector instruction queue wakeup accesses (Count)
system.cpu.intAluAccesses                   157112119                       # Number of integer alu accesses (Count)
system.cpu.fpAluAccesses                            0                       # Number of floating point alu accesses (Count)
system.cpu.vecAluAccesses                      101251                       # Number of vector alu accesses (Count)
system.cpu.idleCycles                               0                       # Number of cycles IEW is idle (Cycle)
system.cpu.squashCycles                       1112505                       # Number of cycles IEW is squashing (Cycle)
system.cpu.blockCycles                       22301515                       # Number of cycles IEW is blocking (Cycle)
system.cpu.unblockCycles                      4723073                       # Number of cycles IEW is unblocking (Cycle)
system.cpu.dispatchedInsts                  155565065                       # Number of instructions dispatched to IQ (Count)
system.cpu.dispSquashedInsts                   304552                       # Number of squashed instructions skipped by dispatch (Count)
system.cpu.dispLoadInsts                     27115102                       # Number of dispatched load instructions (Count)
system.cpu.dispStoreInsts                    21963742                       # Number of dispatched store instructions (Count)
system.cpu.dispNonSpecInsts                    835261                       # Number of dispatched non-speculative instructions (Count)
system.cpu.iqFullEvents                         86515                       # Number of times the IQ has become full, causing a stall (Count)
system.cpu.lsqFullEvents                      4581374                       # Number of times the LSQ has become full, causing a stall (Count)
system.cpu.memOrderViolationEvents              38724                       # Number of memory order violations (Count)
system.cpu.predictedTakenIncorrect             389738                       # Number of branches that were predicted taken incorrectly (Count)
system.cpu.predictedNotTakenIncorrect          761239                       # Number of branches that were predicted not taken incorrectly (Count)
system.cpu.branchMispredicts                  1150977                       # Number of branch mispredicts detected at execute (Count)
system.cpu.numInsts                         152878461                       # Number of executed instructions (Count)
system.cpu.numLoadInsts                      30160410                       # Number of load instructions executed (Count)
system.cpu.numSquashedInsts                   1186770                       # Number of squashed instructions skipped in execute (Count)
system.cpu.numSwp                                   0                       # Number of swp insts executed (Count)
system.cpu.numNop                              288201                       # Number of nop insts executed (Count)
system.cpu.numRefs                           51263321                       # Number of memory reference insts executed (Count)
system.cpu.numBranches                       27825890                       # Number of branches executed (Count)
system.cpu.numStoreInsts                     21102911                       # Number of stores executed (Count)
system.cpu.numRate                           0.295999                       # Inst execution rate ((Count/Cycle))
system.cpu.instsToCommit                    148060495                       # Cumulative count of insts sent to commit (Count)
system.cpu.writebackCount                   147843851                       # Cumulative count of insts written-back (Count)
system.cpu.producerInst                      73295906                       # Number of instructions producing a value (Count)
system.cpu.consumerInst                     124497806                       # Number of instructions consuming a value (Count)
system.cpu.wbRate                            0.286251                       # Insts written-back per cycle ((Count/Cycle))
system.cpu.wbFanout                          0.588733                       # Average fanout of values written-back ((Count/Count))
system.cpu.timesIdled                         2220626                       # Number of times that the entire CPU went into an idle state and unscheduled itself (Count)
system.cpu.idleCycles                       240472625                       # Total number of cycles that the CPU has spent unscheduled due to idling (Cycle)
system.cpu.quiesceCycles                    637830661                       # Total number of cycles that CPU has spent quiesced or waiting for an interrupt (Cycle)
system.cpu.committedInsts                   118949895                       # Number of Instructions Simulated (Count)
system.cpu.committedOps                     139094032                       # Number of Ops (including micro ops) Simulated (Count)
system.cpu.cpi                               4.342016                       # CPI: Cycles Per Instruction ((Cycle/Count))
system.cpu.totalCpi                          4.342016                       # CPI: Total CPI of All Threads ((Cycle/Count))
system.cpu.ipc                               0.230308                       # IPC: Instructions Per Cycle ((Count/Cycle))
system.cpu.totalIpc                          0.230308                       # IPC: Total IPC of All Threads ((Count/Cycle))
system.cpu.intRegfileReads                  179623696                       # Number of integer regfile reads (Count)
system.cpu.intRegfileWrites                 107675223                       # Number of integer regfile writes (Count)
system.cpu.vecRegfileReads                     125530                       # number of vector regfile reads (Count)
system.cpu.vecRegfileWrites                     65319                       # number of vector regfile writes (Count)
system.cpu.ccRegfileReads                    30953705                       # number of cc regfile reads (Count)
system.cpu.ccRegfileWrites                   30723786                       # number of cc regfile writes (Count)
system.cpu.miscRegfileReads                 987817897                       # number of misc regfile reads (Count)
system.cpu.miscRegfileWrites                  2172812                       # number of misc regfile writes (Count)
system.cpu.MemDepUnit__0.insertedLoads       27115102                       # Number of loads inserted to the mem dependence unit. (Count)
system.cpu.MemDepUnit__0.insertedStores      21963742                       # Number of stores inserted to the mem dependence unit. (Count)
system.cpu.MemDepUnit__0.conflictingLoads      2543206                       # Number of conflicting loads. (Count)
system.cpu.MemDepUnit__0.conflictingStores      2527214                       # Number of conflicting stores. (Count)
system.cpu.MemDepUnit__1.insertedLoads              0                       # Number of loads inserted to the mem dependence unit. (Count)
system.cpu.MemDepUnit__1.insertedStores             0                       # Number of stores inserted to the mem dependence unit. (Count)
system.cpu.MemDepUnit__1.conflictingLoads            0                       # Number of conflicting loads. (Count)
system.cpu.MemDepUnit__1.conflictingStores            0                       # Number of conflicting stores. (Count)
system.cpu.MemDepUnit__2.insertedLoads              0                       # Number of loads inserted to the mem dependence unit. (Count)
system.cpu.MemDepUnit__2.insertedStores             0                       # Number of stores inserted to the mem dependence unit. (Count)
system.cpu.MemDepUnit__2.conflictingLoads            0                       # Number of conflicting loads. (Count)
system.cpu.MemDepUnit__2.conflictingStores            0                       # Number of conflicting stores. (Count)
system.cpu.MemDepUnit__3.insertedLoads              0                       # Number of loads inserted to the mem dependence unit. (Count)
system.cpu.MemDepUnit__3.insertedStores             0                       # Number of stores inserted to the mem dependence unit. (Count)
system.cpu.MemDepUnit__3.conflictingLoads            0                       # Number of conflicting loads. (Count)
system.cpu.MemDepUnit__3.conflictingStores            0                       # Number of conflicting stores. (Count)
system.cpu.branchPred.lookups                33352327                       # Number of BP lookups (Count)
system.cpu.branchPred.condPredicted          21146134                       # Number of conditional branches predicted (Count)
system.cpu.branchPred.condIncorrect           1557552                       # Number of conditional branches incorrect (Count)
system.cpu.branchPred.BTBLookups             16095611                       # Number of BTB lookups (Count)
system.cpu.branchPred.BTBHits                14430594                       # Number of BTB hits (Count)
system.cpu.branchPred.BTBHitRatio            0.896555                       # BTB Hit Ratio (Ratio)
system.cpu.branchPred.RASUsed                 5036909                       # Number of times the RAS was used to get a target. (Count)
system.cpu.branchPred.RASIncorrect              39598                       # Number of incorrect RAS predictions. (Count)
system.cpu.branchPred.indirectLookups          547015                       # Number of indirect predictor lookups. (Count)
system.cpu.branchPred.indirectHits             391965                       # Number of indirect target hits. (Count)
system.cpu.branchPred.indirectMisses           155050                       # Number of indirect misses. (Count)
system.cpu.branchPred.indirectMispredicted        38744                       # Number of mispredicted indirect branches. (Count)
system.cpu.commit.commitSquashedInsts        16239173                       # The number of squashed insts skipped by commit (Count)
system.cpu.commit.commitNonSpecStalls         1049073                       # The number of times commit has been forced to stall to communicate backwards (Count)
system.cpu.commit.branchMispredicts           1048714                       # The number of times a branch was mispredicted (Count)
system.cpu.commit.numCommittedDist::samples    273271661                       # Number of insts commited each cycle (Count)
system.cpu.commit.numCommittedDist::mean     0.509866                       # Number of insts commited each cycle (Count)
system.cpu.commit.numCommittedDist::stdev     1.469514                       # Number of insts commited each cycle (Count)
system.cpu.commit.numCommittedDist::underflows            0      0.00%      0.00% # Number of insts commited each cycle (Count)
system.cpu.commit.numCommittedDist::0       222959056     81.59%     81.59% # Number of insts commited each cycle (Count)
system.cpu.commit.numCommittedDist::1        23492805      8.60%     90.19% # Number of insts commited each cycle (Count)
system.cpu.commit.numCommittedDist::2         8564964      3.13%     93.32% # Number of insts commited each cycle (Count)
system.cpu.commit.numCommittedDist::3         3813158      1.40%     94.72% # Number of insts commited each cycle (Count)
system.cpu.commit.numCommittedDist::4         4400804      1.61%     96.33% # Number of insts commited each cycle (Count)
system.cpu.commit.numCommittedDist::5         2161979      0.79%     97.12% # Number of insts commited each cycle (Count)
system.cpu.commit.numCommittedDist::6         1499307      0.55%     97.67% # Number of insts commited each cycle (Count)
system.cpu.commit.numCommittedDist::7         1175959      0.43%     98.10% # Number of insts commited each cycle (Count)
system.cpu.commit.numCommittedDist::8         5203629      1.90%    100.00% # Number of insts commited each cycle (Count)
system.cpu.commit.numCommittedDist::overflows            0      0.00%    100.00% # Number of insts commited each cycle (Count)
system.cpu.commit.numCommittedDist::min_value            0                       # Number of insts commited each cycle (Count)
system.cpu.commit.numCommittedDist::max_value            8                       # Number of insts commited each cycle (Count)
system.cpu.commit.numCommittedDist::total    273271661                       # Number of insts commited each cycle (Count)
system.cpu.commit.instsCommitted            119187768                       # Number of instructions committed (Count)
system.cpu.commit.opsCommitted              139331905                       # Number of ops (including micro ops) committed (Count)
system.cpu.commit.memRefs                    44294865                       # Number of memory references committed (Count)
system.cpu.commit.loads                      24060872                       # Number of loads committed (Count)
system.cpu.commit.amos                              0                       # Number of atomic instructions committed (Count)
system.cpu.commit.membars                      730916                       # Number of memory barriers committed (Count)
system.cpu.commit.branches                   26046531                       # Number of branches committed (Count)
system.cpu.commit.vectorInstructions            87225                       # Number of committed Vector instructions. (Count)
system.cpu.commit.floating                          0                       # Number of committed floating point instructions. (Count)
system.cpu.commit.integer                   129067717                       # Number of committed integer instructions. (Count)
system.cpu.commit.functionCalls               4030540                       # Number of function calls committed. (Count)
system.cpu.commit.committedInstType_0::No_OpClass        10567      0.01%      0.01% # Class of committed instruction (Count)
system.cpu.commit.committedInstType_0::IntAlu     94559612     67.87%     67.87% # Class of committed instruction (Count)
system.cpu.commit.committedInstType_0::IntMult       381998      0.27%     68.15% # Class of committed instruction (Count)
system.cpu.commit.committedInstType_0::IntDiv        34722      0.02%     68.17% # Class of committed instruction (Count)
system.cpu.commit.committedInstType_0::FloatAdd            0      0.00%     68.17% # Class of committed instruction (Count)
system.cpu.commit.committedInstType_0::FloatCmp            0      0.00%     68.17% # Class of committed instruction (Count)
system.cpu.commit.committedInstType_0::FloatCvt            0      0.00%     68.17% # Class of committed instruction (Count)
system.cpu.commit.committedInstType_0::FloatMult            0      0.00%     68.17% # Class of committed instruction (Count)
system.cpu.commit.committedInstType_0::FloatMultAcc            0      0.00%     68.17% # Class of committed instruction (Count)
system.cpu.commit.committedInstType_0::FloatDiv            0      0.00%     68.17% # Class of committed instruction (Count)
system.cpu.commit.committedInstType_0::FloatMisc            0      0.00%     68.17% # Class of committed instruction (Count)
system.cpu.commit.committedInstType_0::FloatSqrt            0      0.00%     68.17% # Class of committed instruction (Count)
system.cpu.commit.committedInstType_0::SimdAdd         9055      0.01%     68.18% # Class of committed instruction (Count)
system.cpu.commit.committedInstType_0::SimdAddAcc            0      0.00%     68.18% # Class of committed instruction (Count)
system.cpu.commit.committedInstType_0::SimdAlu        20697      0.01%     68.19% # Class of committed instruction (Count)
system.cpu.commit.committedInstType_0::SimdCmp        11508      0.01%     68.20% # Class of committed instruction (Count)
system.cpu.commit.committedInstType_0::SimdCvt            0      0.00%     68.20% # Class of committed instruction (Count)
system.cpu.commit.committedInstType_0::SimdMisc         8881      0.01%     68.21% # Class of committed instruction (Count)
system.cpu.commit.committedInstType_0::SimdMult            0      0.00%     68.21% # Class of committed instruction (Count)
system.cpu.commit.committedInstType_0::SimdMultAcc            0      0.00%     68.21% # Class of committed instruction (Count)
system.cpu.commit.committedInstType_0::SimdShift            0      0.00%     68.21% # Class of committed instruction (Count)
system.cpu.commit.committedInstType_0::SimdShiftAcc            0      0.00%     68.21% # Class of committed instruction (Count)
system.cpu.commit.committedInstType_0::SimdDiv            0      0.00%     68.21% # Class of committed instruction (Count)
system.cpu.commit.committedInstType_0::SimdSqrt            0      0.00%     68.21% # Class of committed instruction (Count)
system.cpu.commit.committedInstType_0::SimdFloatAdd            0      0.00%     68.21% # Class of committed instruction (Count)
system.cpu.commit.committedInstType_0::SimdFloatAlu            0      0.00%     68.21% # Class of committed instruction (Count)
system.cpu.commit.committedInstType_0::SimdFloatCmp            0      0.00%     68.21% # Class of committed instruction (Count)
system.cpu.commit.committedInstType_0::SimdFloatCvt            0      0.00%     68.21% # Class of committed instruction (Count)
system.cpu.commit.committedInstType_0::SimdFloatDiv            0      0.00%     68.21% # Class of committed instruction (Count)
system.cpu.commit.committedInstType_0::SimdFloatMisc            0      0.00%     68.21% # Class of committed instruction (Count)
system.cpu.commit.committedInstType_0::SimdFloatMult            0      0.00%     68.21% # Class of committed instruction (Count)
system.cpu.commit.committedInstType_0::SimdFloatMultAcc            0      0.00%     68.21% # Class of committed instruction (Count)
system.cpu.commit.committedInstType_0::SimdFloatSqrt            0      0.00%     68.21% # Class of committed instruction (Count)
system.cpu.commit.committedInstType_0::SimdReduceAdd            0      0.00%     68.21% # Class of committed instruction (Count)
system.cpu.commit.committedInstType_0::SimdReduceAlu            0      0.00%     68.21% # Class of committed instruction (Count)
system.cpu.commit.committedInstType_0::SimdReduceCmp            0      0.00%     68.21% # Class of committed instruction (Count)
system.cpu.commit.committedInstType_0::SimdFloatReduceAdd            0      0.00%     68.21% # Class of committed instruction (Count)
system.cpu.commit.committedInstType_0::SimdFloatReduceCmp            0      0.00%     68.21% # Class of committed instruction (Count)
system.cpu.commit.committedInstType_0::SimdAes            0      0.00%     68.21% # Class of committed instruction (Count)
system.cpu.commit.committedInstType_0::SimdAesMix            0      0.00%     68.21% # Class of committed instruction (Count)
system.cpu.commit.committedInstType_0::SimdSha1Hash            0      0.00%     68.21% # Class of committed instruction (Count)
system.cpu.commit.committedInstType_0::SimdSha1Hash2            0      0.00%     68.21% # Class of committed instruction (Count)
system.cpu.commit.committedInstType_0::SimdSha256Hash            0      0.00%     68.21% # Class of committed instruction (Count)
system.cpu.commit.committedInstType_0::SimdSha256Hash2            0      0.00%     68.21% # Class of committed instruction (Count)
system.cpu.commit.committedInstType_0::SimdShaSigma2            0      0.00%     68.21% # Class of committed instruction (Count)
system.cpu.commit.committedInstType_0::SimdShaSigma3            0      0.00%     68.21% # Class of committed instruction (Count)
system.cpu.commit.committedInstType_0::SimdPredAlu            0      0.00%     68.21% # Class of committed instruction (Count)
system.cpu.commit.committedInstType_0::MemRead     24060872     17.27%     85.48% # Class of committed instruction (Count)
system.cpu.commit.committedInstType_0::MemWrite     20233993     14.52%    100.00% # Class of committed instruction (Count)
system.cpu.commit.committedInstType_0::FloatMemRead            0      0.00%    100.00% # Class of committed instruction (Count)
system.cpu.commit.committedInstType_0::FloatMemWrite            0      0.00%    100.00% # Class of committed instruction (Count)
system.cpu.commit.committedInstType_0::IprAccess            0      0.00%    100.00% # Class of committed instruction (Count)
system.cpu.commit.committedInstType_0::InstPrefetch            0      0.00%    100.00% # Class of committed instruction (Count)
system.cpu.commit.committedInstType_0::total    139331905                       # Class of committed instruction (Count)
system.cpu.commit.commitEligibleSamples       5203629                       # number cycles where commit BW limit reached (Cycle)
system.cpu.dcache.demandHits::cpu.data       39435491                       # number of demand (read+write) hits (Count)
system.cpu.dcache.demandHits::total          39435491                       # number of demand (read+write) hits (Count)
system.cpu.dcache.overallHits::cpu.data      39872242                       # number of overall hits (Count)
system.cpu.dcache.overallHits::total         39872242                       # number of overall hits (Count)
system.cpu.dcache.demandMisses::cpu.data      4267326                       # number of demand (read+write) misses (Count)
system.cpu.dcache.demandMisses::total         4267326                       # number of demand (read+write) misses (Count)
system.cpu.dcache.overallMisses::cpu.data      4447166                       # number of overall misses (Count)
system.cpu.dcache.overallMisses::total        4447166                       # number of overall misses (Count)
system.cpu.dcache.demandMissLatency::cpu.data 181685542299                       # number of demand (read+write) miss ticks (Tick)
system.cpu.dcache.demandMissLatency::total 181685542299                       # number of demand (read+write) miss ticks (Tick)
system.cpu.dcache.overallMissLatency::cpu.data 181685542299                       # number of overall miss ticks (Tick)
system.cpu.dcache.overallMissLatency::total 181685542299                       # number of overall miss ticks (Tick)
system.cpu.dcache.demandAccesses::cpu.data     43702817                       # number of demand (read+write) accesses (Count)
system.cpu.dcache.demandAccesses::total      43702817                       # number of demand (read+write) accesses (Count)
system.cpu.dcache.overallAccesses::cpu.data     44319408                       # number of overall (read+write) accesses (Count)
system.cpu.dcache.overallAccesses::total     44319408                       # number of overall (read+write) accesses (Count)
system.cpu.dcache.demandMissRate::cpu.data     0.097644                       # miss rate for demand accesses (Ratio)
system.cpu.dcache.demandMissRate::total      0.097644                       # miss rate for demand accesses (Ratio)
system.cpu.dcache.overallMissRate::cpu.data     0.100344                       # miss rate for overall accesses (Ratio)
system.cpu.dcache.overallMissRate::total     0.100344                       # miss rate for overall accesses (Ratio)
system.cpu.dcache.demandAvgMissLatency::cpu.data 42575.969659                       # average overall miss latency ((Cycle/Count))
system.cpu.dcache.demandAvgMissLatency::total 42575.969659                       # average overall miss latency ((Cycle/Count))
system.cpu.dcache.overallAvgMissLatency::cpu.data 40854.229930                       # average overall miss latency ((Cycle/Count))
system.cpu.dcache.overallAvgMissLatency::total 40854.229930                       # average overall miss latency ((Cycle/Count))
system.cpu.dcache.blockedCycles::no_mshrs     13455116                       # number of cycles access was blocked (Cycle)
system.cpu.dcache.blockedCycles::no_targets        16615                       # number of cycles access was blocked (Cycle)
system.cpu.dcache.blockedCauses::no_mshrs       623282                       # number of times access was blocked (Count)
system.cpu.dcache.blockedCauses::no_targets          208                       # number of times access was blocked (Count)
system.cpu.dcache.avgBlocked::no_mshrs      21.587525                       # average number of cycles each access was blocked ((Cycle/Count))
system.cpu.dcache.avgBlocked::no_targets    79.879808                       # average number of cycles each access was blocked ((Cycle/Count))
system.cpu.dcache.writebacks::writebacks      1058371                       # number of writebacks (Count)
system.cpu.dcache.writebacks::total           1058371                       # number of writebacks (Count)
system.cpu.dcache.demandMshrHits::cpu.data      2978677                       # number of demand (read+write) MSHR hits (Count)
system.cpu.dcache.demandMshrHits::total       2978677                       # number of demand (read+write) MSHR hits (Count)
system.cpu.dcache.overallMshrHits::cpu.data      2978677                       # number of overall MSHR hits (Count)
system.cpu.dcache.overallMshrHits::total      2978677                       # number of overall MSHR hits (Count)
system.cpu.dcache.demandMshrMisses::cpu.data      1288649                       # number of demand (read+write) MSHR misses (Count)
system.cpu.dcache.demandMshrMisses::total      1288649                       # number of demand (read+write) MSHR misses (Count)
system.cpu.dcache.overallMshrMisses::cpu.data      1461289                       # number of overall MSHR misses (Count)
system.cpu.dcache.overallMshrMisses::total      1461289                       # number of overall MSHR misses (Count)
system.cpu.dcache.overallMshrUncacheable::cpu.data        49405                       # number of overall MSHR uncacheable misses (Count)
system.cpu.dcache.overallMshrUncacheable::total        49405                       # number of overall MSHR uncacheable misses (Count)
system.cpu.dcache.demandMshrMissLatency::cpu.data  67171044312                       # number of demand (read+write) MSHR miss ticks (Tick)
system.cpu.dcache.demandMshrMissLatency::total  67171044312                       # number of demand (read+write) MSHR miss ticks (Tick)
system.cpu.dcache.overallMshrMissLatency::cpu.data  81024235464                       # number of overall MSHR miss ticks (Tick)
system.cpu.dcache.overallMshrMissLatency::total  81024235464                       # number of overall MSHR miss ticks (Tick)
system.cpu.dcache.overallMshrUncacheableLatency::cpu.data   3955687500                       # number of overall MSHR uncacheable ticks (Tick)
system.cpu.dcache.overallMshrUncacheableLatency::total   3955687500                       # number of overall MSHR uncacheable ticks (Tick)
system.cpu.dcache.demandMshrMissRate::cpu.data     0.029487                       # mshr miss ratio for demand accesses (Ratio)
system.cpu.dcache.demandMshrMissRate::total     0.029487                       # mshr miss ratio for demand accesses (Ratio)
system.cpu.dcache.overallMshrMissRate::cpu.data     0.032972                       # mshr miss ratio for overall accesses (Ratio)
system.cpu.dcache.overallMshrMissRate::total     0.032972                       # mshr miss ratio for overall accesses (Ratio)
system.cpu.dcache.demandAvgMshrMissLatency::cpu.data 52125.166987                       # average overall mshr miss latency ((Cycle/Count))
system.cpu.dcache.demandAvgMshrMissLatency::total 52125.166987                       # average overall mshr miss latency ((Cycle/Count))
system.cpu.dcache.overallAvgMshrMissLatency::cpu.data 55447.098735                       # average overall mshr miss latency ((Cycle/Count))
system.cpu.dcache.overallAvgMshrMissLatency::total 55447.098735                       # average overall mshr miss latency ((Cycle/Count))
system.cpu.dcache.overallAvgMshrUncacheableLatency::cpu.data 80066.541848                       # average overall mshr uncacheable latency ((Cycle/Count))
system.cpu.dcache.overallAvgMshrUncacheableLatency::total 80066.541848                       # average overall mshr uncacheable latency ((Cycle/Count))
system.cpu.dcache.replacements                1457349                       # number of replacements (Count)
system.cpu.dcache.CleanInvalidReq.missLatency::cpu.data    151918977                       # number of CleanInvalidReq miss ticks (Tick)
system.cpu.dcache.CleanInvalidReq.missLatency::total    151918977                       # number of CleanInvalidReq miss ticks (Tick)
system.cpu.dcache.CleanInvalidReq.avgMissLatency::cpu.data          inf                       # average CleanInvalidReq miss latency ((Tick/Count))
system.cpu.dcache.CleanInvalidReq.avgMissLatency::total          inf                       # average CleanInvalidReq miss latency ((Tick/Count))
system.cpu.dcache.CleanInvalidReq.mshrHits::cpu.data         3078                       # number of CleanInvalidReq MSHR hits (Count)
system.cpu.dcache.CleanInvalidReq.mshrHits::total         3078                       # number of CleanInvalidReq MSHR hits (Count)
system.cpu.dcache.CleanInvalidReq.mshrMisses::cpu.data         8108                       # number of CleanInvalidReq MSHR misses (Count)
system.cpu.dcache.CleanInvalidReq.mshrMisses::total         8108                       # number of CleanInvalidReq MSHR misses (Count)
system.cpu.dcache.CleanInvalidReq.mshrMissLatency::cpu.data    205512799                       # number of CleanInvalidReq MSHR miss ticks (Tick)
system.cpu.dcache.CleanInvalidReq.mshrMissLatency::total    205512799                       # number of CleanInvalidReq MSHR miss ticks (Tick)
system.cpu.dcache.CleanInvalidReq.mshrMissRate::cpu.data          inf                       # mshr miss rate for CleanInvalidReq accesses (Ratio)
system.cpu.dcache.CleanInvalidReq.mshrMissRate::total          inf                       # mshr miss rate for CleanInvalidReq accesses (Ratio)
system.cpu.dcache.CleanInvalidReq.avgMshrMissLatency::cpu.data 25346.916502                       # average CleanInvalidReq mshr miss latency ((Tick/Count))
system.cpu.dcache.CleanInvalidReq.avgMshrMissLatency::total 25346.916502                       # average CleanInvalidReq mshr miss latency ((Tick/Count))
system.cpu.dcache.CleanSharedReq.missLatency::cpu.data     10091152                       # number of CleanSharedReq miss ticks (Tick)
system.cpu.dcache.CleanSharedReq.missLatency::total     10091152                       # number of CleanSharedReq miss ticks (Tick)
system.cpu.dcache.CleanSharedReq.avgMissLatency::cpu.data          inf                       # average CleanSharedReq miss latency ((Tick/Count))
system.cpu.dcache.CleanSharedReq.avgMissLatency::total          inf                       # average CleanSharedReq miss latency ((Tick/Count))
system.cpu.dcache.CleanSharedReq.mshrHits::cpu.data         2521                       # number of CleanSharedReq MSHR hits (Count)
system.cpu.dcache.CleanSharedReq.mshrHits::total         2521                       # number of CleanSharedReq MSHR hits (Count)
system.cpu.dcache.CleanSharedReq.mshrMisses::cpu.data        78319                       # number of CleanSharedReq MSHR misses (Count)
system.cpu.dcache.CleanSharedReq.mshrMisses::total        78319                       # number of CleanSharedReq MSHR misses (Count)
system.cpu.dcache.CleanSharedReq.mshrMissLatency::cpu.data    855786246                       # number of CleanSharedReq MSHR miss ticks (Tick)
system.cpu.dcache.CleanSharedReq.mshrMissLatency::total    855786246                       # number of CleanSharedReq MSHR miss ticks (Tick)
system.cpu.dcache.CleanSharedReq.mshrMissRate::cpu.data          inf                       # mshr miss rate for CleanSharedReq accesses (Ratio)
system.cpu.dcache.CleanSharedReq.mshrMissRate::total          inf                       # mshr miss rate for CleanSharedReq accesses (Ratio)
system.cpu.dcache.CleanSharedReq.avgMshrMissLatency::cpu.data 10926.930196                       # average CleanSharedReq mshr miss latency ((Tick/Count))
system.cpu.dcache.CleanSharedReq.avgMshrMissLatency::total 10926.930196                       # average CleanSharedReq mshr miss latency ((Tick/Count))
system.cpu.dcache.InvalidateReq.mshrMisses::cpu.data          771                       # number of InvalidateReq MSHR misses (Count)
system.cpu.dcache.InvalidateReq.mshrMisses::total          771                       # number of InvalidateReq MSHR misses (Count)
system.cpu.dcache.InvalidateReq.mshrMissLatency::cpu.data      7709852                       # number of InvalidateReq MSHR miss ticks (Tick)
system.cpu.dcache.InvalidateReq.mshrMissLatency::total      7709852                       # number of InvalidateReq MSHR miss ticks (Tick)
system.cpu.dcache.InvalidateReq.mshrMissRate::cpu.data          inf                       # mshr miss rate for InvalidateReq accesses (Ratio)
system.cpu.dcache.InvalidateReq.mshrMissRate::total          inf                       # mshr miss rate for InvalidateReq accesses (Ratio)
system.cpu.dcache.InvalidateReq.avgMshrMissLatency::cpu.data  9999.808042                       # average InvalidateReq mshr miss latency ((Tick/Count))
system.cpu.dcache.InvalidateReq.avgMshrMissLatency::total  9999.808042                       # average InvalidateReq mshr miss latency ((Tick/Count))
system.cpu.dcache.LoadLockedReq.hits::cpu.data       440722                       # number of LoadLockedReq hits (Count)
system.cpu.dcache.LoadLockedReq.hits::total       440722                       # number of LoadLockedReq hits (Count)
system.cpu.dcache.LoadLockedReq.misses::cpu.data        48426                       # number of LoadLockedReq misses (Count)
system.cpu.dcache.LoadLockedReq.misses::total        48426                       # number of LoadLockedReq misses (Count)
system.cpu.dcache.LoadLockedReq.missLatency::cpu.data   3533052000                       # number of LoadLockedReq miss ticks (Tick)
system.cpu.dcache.LoadLockedReq.missLatency::total   3533052000                       # number of LoadLockedReq miss ticks (Tick)
system.cpu.dcache.LoadLockedReq.accesses::cpu.data       489148                       # number of LoadLockedReq accesses(hits+misses) (Count)
system.cpu.dcache.LoadLockedReq.accesses::total       489148                       # number of LoadLockedReq accesses(hits+misses) (Count)
system.cpu.dcache.LoadLockedReq.missRate::cpu.data     0.099001                       # miss rate for LoadLockedReq accesses (Ratio)
system.cpu.dcache.LoadLockedReq.missRate::total     0.099001                       # miss rate for LoadLockedReq accesses (Ratio)
system.cpu.dcache.LoadLockedReq.avgMissLatency::cpu.data 72957.749969                       # average LoadLockedReq miss latency ((Tick/Count))
system.cpu.dcache.LoadLockedReq.avgMissLatency::total 72957.749969                       # average LoadLockedReq miss latency ((Tick/Count))
system.cpu.dcache.LoadLockedReq.mshrHits::cpu.data        44820                       # number of LoadLockedReq MSHR hits (Count)
system.cpu.dcache.LoadLockedReq.mshrHits::total        44820                       # number of LoadLockedReq MSHR hits (Count)
system.cpu.dcache.LoadLockedReq.mshrMisses::cpu.data         3606                       # number of LoadLockedReq MSHR misses (Count)
system.cpu.dcache.LoadLockedReq.mshrMisses::total         3606                       # number of LoadLockedReq MSHR misses (Count)
system.cpu.dcache.LoadLockedReq.mshrMissLatency::cpu.data    283117500                       # number of LoadLockedReq MSHR miss ticks (Tick)
system.cpu.dcache.LoadLockedReq.mshrMissLatency::total    283117500                       # number of LoadLockedReq MSHR miss ticks (Tick)
system.cpu.dcache.LoadLockedReq.mshrMissRate::cpu.data     0.007372                       # mshr miss rate for LoadLockedReq accesses (Ratio)
system.cpu.dcache.LoadLockedReq.mshrMissRate::total     0.007372                       # mshr miss rate for LoadLockedReq accesses (Ratio)
system.cpu.dcache.LoadLockedReq.avgMshrMissLatency::cpu.data 78512.895175                       # average LoadLockedReq mshr miss latency ((Tick/Count))
system.cpu.dcache.LoadLockedReq.avgMshrMissLatency::total 78512.895175                       # average LoadLockedReq mshr miss latency ((Tick/Count))
system.cpu.dcache.ReadReq.hits::cpu.data     22787924                       # number of ReadReq hits (Count)
system.cpu.dcache.ReadReq.hits::total        22787924                       # number of ReadReq hits (Count)
system.cpu.dcache.ReadReq.misses::cpu.data      1259095                       # number of ReadReq misses (Count)
system.cpu.dcache.ReadReq.misses::total       1259095                       # number of ReadReq misses (Count)
system.cpu.dcache.ReadReq.missLatency::cpu.data  86656948000                       # number of ReadReq miss ticks (Tick)
system.cpu.dcache.ReadReq.missLatency::total  86656948000                       # number of ReadReq miss ticks (Tick)
system.cpu.dcache.ReadReq.accesses::cpu.data     24047019                       # number of ReadReq accesses(hits+misses) (Count)
system.cpu.dcache.ReadReq.accesses::total     24047019                       # number of ReadReq accesses(hits+misses) (Count)
system.cpu.dcache.ReadReq.missRate::cpu.data     0.052360                       # miss rate for ReadReq accesses (Ratio)
system.cpu.dcache.ReadReq.missRate::total     0.052360                       # miss rate for ReadReq accesses (Ratio)
system.cpu.dcache.ReadReq.avgMissLatency::cpu.data 68824.789234                       # average ReadReq miss latency ((Tick/Count))
system.cpu.dcache.ReadReq.avgMissLatency::total 68824.789234                       # average ReadReq miss latency ((Tick/Count))
system.cpu.dcache.ReadReq.mshrHits::cpu.data       686992                       # number of ReadReq MSHR hits (Count)
system.cpu.dcache.ReadReq.mshrHits::total       686992                       # number of ReadReq MSHR hits (Count)
system.cpu.dcache.ReadReq.mshrMisses::cpu.data       572103                       # number of ReadReq MSHR misses (Count)
system.cpu.dcache.ReadReq.mshrMisses::total       572103                       # number of ReadReq MSHR misses (Count)
system.cpu.dcache.ReadReq.mshrUncacheable::cpu.data        24960                       # number of ReadReq MSHR uncacheable (Count)
system.cpu.dcache.ReadReq.mshrUncacheable::total        24960                       # number of ReadReq MSHR uncacheable (Count)
system.cpu.dcache.ReadReq.mshrMissLatency::cpu.data  43546765017                       # number of ReadReq MSHR miss ticks (Tick)
system.cpu.dcache.ReadReq.mshrMissLatency::total  43546765017                       # number of ReadReq MSHR miss ticks (Tick)
system.cpu.dcache.ReadReq.mshrUncacheableLatency::cpu.data   3955687500                       # number of ReadReq MSHR uncacheable ticks (Tick)
system.cpu.dcache.ReadReq.mshrUncacheableLatency::total   3955687500                       # number of ReadReq MSHR uncacheable ticks (Tick)
system.cpu.dcache.ReadReq.mshrMissRate::cpu.data     0.023791                       # mshr miss rate for ReadReq accesses (Ratio)
system.cpu.dcache.ReadReq.mshrMissRate::total     0.023791                       # mshr miss rate for ReadReq accesses (Ratio)
system.cpu.dcache.ReadReq.avgMshrMissLatency::cpu.data 76117.001689                       # average ReadReq mshr miss latency ((Tick/Count))
system.cpu.dcache.ReadReq.avgMshrMissLatency::total 76117.001689                       # average ReadReq mshr miss latency ((Tick/Count))
system.cpu.dcache.ReadReq.avgMshrUncacheableLatency::cpu.data 158481.069712                       # average ReadReq mshr uncacheable latency ((Tick/Count))
system.cpu.dcache.ReadReq.avgMshrUncacheableLatency::total 158481.069712                       # average ReadReq mshr uncacheable latency ((Tick/Count))
system.cpu.dcache.SoftPFExReq.hits::cpu.data       422562                       # number of SoftPFExReq hits (Count)
system.cpu.dcache.SoftPFExReq.hits::total       422562                       # number of SoftPFExReq hits (Count)
system.cpu.dcache.SoftPFExReq.misses::cpu.data       164745                       # number of SoftPFExReq misses (Count)
system.cpu.dcache.SoftPFExReq.misses::total       164745                       # number of SoftPFExReq misses (Count)
system.cpu.dcache.SoftPFExReq.accesses::cpu.data       587307                       # number of SoftPFExReq accesses(hits+misses) (Count)
system.cpu.dcache.SoftPFExReq.accesses::total       587307                       # number of SoftPFExReq accesses(hits+misses) (Count)
system.cpu.dcache.SoftPFExReq.missRate::cpu.data     0.280509                       # miss rate for SoftPFExReq accesses (Ratio)
system.cpu.dcache.SoftPFExReq.missRate::total     0.280509                       # miss rate for SoftPFExReq accesses (Ratio)
system.cpu.dcache.SoftPFExReq.mshrMisses::cpu.data       157648                       # number of SoftPFExReq MSHR misses (Count)
system.cpu.dcache.SoftPFExReq.mshrMisses::total       157648                       # number of SoftPFExReq MSHR misses (Count)
system.cpu.dcache.SoftPFExReq.mshrMissLatency::cpu.data  12748367000                       # number of SoftPFExReq MSHR miss ticks (Tick)
system.cpu.dcache.SoftPFExReq.mshrMissLatency::total  12748367000                       # number of SoftPFExReq MSHR miss ticks (Tick)
system.cpu.dcache.SoftPFExReq.mshrMissRate::cpu.data     0.268425                       # mshr miss rate for SoftPFExReq accesses (Ratio)
system.cpu.dcache.SoftPFExReq.mshrMissRate::total     0.268425                       # mshr miss rate for SoftPFExReq accesses (Ratio)
system.cpu.dcache.SoftPFExReq.avgMshrMissLatency::cpu.data 80866.024307                       # average SoftPFExReq mshr miss latency ((Tick/Count))
system.cpu.dcache.SoftPFExReq.avgMshrMissLatency::total 80866.024307                       # average SoftPFExReq mshr miss latency ((Tick/Count))
system.cpu.dcache.SoftPFReq.hits::cpu.data        14189                       # number of SoftPFReq hits (Count)
system.cpu.dcache.SoftPFReq.hits::total         14189                       # number of SoftPFReq hits (Count)
system.cpu.dcache.SoftPFReq.misses::cpu.data        15095                       # number of SoftPFReq misses (Count)
system.cpu.dcache.SoftPFReq.misses::total        15095                       # number of SoftPFReq misses (Count)
system.cpu.dcache.SoftPFReq.accesses::cpu.data        29284                       # number of SoftPFReq accesses(hits+misses) (Count)
system.cpu.dcache.SoftPFReq.accesses::total        29284                       # number of SoftPFReq accesses(hits+misses) (Count)
system.cpu.dcache.SoftPFReq.missRate::cpu.data     0.515469                       # miss rate for SoftPFReq accesses (Ratio)
system.cpu.dcache.SoftPFReq.missRate::total     0.515469                       # miss rate for SoftPFReq accesses (Ratio)
system.cpu.dcache.SoftPFReq.mshrMisses::cpu.data        14992                       # number of SoftPFReq MSHR misses (Count)
system.cpu.dcache.SoftPFReq.mshrMisses::total        14992                       # number of SoftPFReq MSHR misses (Count)
system.cpu.dcache.SoftPFReq.mshrMissLatency::cpu.data   1104824152                       # number of SoftPFReq MSHR miss ticks (Tick)
system.cpu.dcache.SoftPFReq.mshrMissLatency::total   1104824152                       # number of SoftPFReq MSHR miss ticks (Tick)
system.cpu.dcache.SoftPFReq.mshrMissRate::cpu.data     0.511952                       # mshr miss rate for SoftPFReq accesses (Ratio)
system.cpu.dcache.SoftPFReq.mshrMissRate::total     0.511952                       # mshr miss rate for SoftPFReq accesses (Ratio)
system.cpu.dcache.SoftPFReq.avgMshrMissLatency::cpu.data 73694.247065                       # average SoftPFReq mshr miss latency ((Tick/Count))
system.cpu.dcache.SoftPFReq.avgMshrMissLatency::total 73694.247065                       # average SoftPFReq mshr miss latency ((Tick/Count))
system.cpu.dcache.StoreCondReq.hits::cpu.data       464494                       # number of StoreCondReq hits (Count)
system.cpu.dcache.StoreCondReq.hits::total       464494                       # number of StoreCondReq hits (Count)
system.cpu.dcache.StoreCondReq.accesses::cpu.data       464494                       # number of StoreCondReq accesses(hits+misses) (Count)
system.cpu.dcache.StoreCondReq.accesses::total       464494                       # number of StoreCondReq accesses(hits+misses) (Count)
system.cpu.dcache.WriteLineReq.hits::cpu.data        43533                       # number of WriteLineReq hits (Count)
system.cpu.dcache.WriteLineReq.hits::total        43533                       # number of WriteLineReq hits (Count)
system.cpu.dcache.WriteLineReq.misses::cpu.data       355681                       # number of WriteLineReq misses (Count)
system.cpu.dcache.WriteLineReq.misses::total       355681                       # number of WriteLineReq misses (Count)
system.cpu.dcache.WriteLineReq.missLatency::cpu.data   6035096942                       # number of WriteLineReq miss ticks (Tick)
system.cpu.dcache.WriteLineReq.missLatency::total   6035096942                       # number of WriteLineReq miss ticks (Tick)
system.cpu.dcache.WriteLineReq.accesses::cpu.data       399214                       # number of WriteLineReq accesses(hits+misses) (Count)
system.cpu.dcache.WriteLineReq.accesses::total       399214                       # number of WriteLineReq accesses(hits+misses) (Count)
system.cpu.dcache.WriteLineReq.missRate::cpu.data     0.890953                       # miss rate for WriteLineReq accesses (Ratio)
system.cpu.dcache.WriteLineReq.missRate::total     0.890953                       # miss rate for WriteLineReq accesses (Ratio)
system.cpu.dcache.WriteLineReq.avgMissLatency::cpu.data 16967.723724                       # average WriteLineReq miss latency ((Tick/Count))
system.cpu.dcache.WriteLineReq.avgMissLatency::total 16967.723724                       # average WriteLineReq miss latency ((Tick/Count))
system.cpu.dcache.WriteLineReq.mshrHits::cpu.data         3545                       # number of WriteLineReq MSHR hits (Count)
system.cpu.dcache.WriteLineReq.mshrHits::total         3545                       # number of WriteLineReq MSHR hits (Count)
system.cpu.dcache.WriteLineReq.mshrMisses::cpu.data       352136                       # number of WriteLineReq MSHR misses (Count)
system.cpu.dcache.WriteLineReq.mshrMisses::total       352136                       # number of WriteLineReq MSHR misses (Count)
system.cpu.dcache.WriteLineReq.mshrMissLatency::cpu.data   5564019484                       # number of WriteLineReq MSHR miss ticks (Tick)
system.cpu.dcache.WriteLineReq.mshrMissLatency::total   5564019484                       # number of WriteLineReq MSHR miss ticks (Tick)
system.cpu.dcache.WriteLineReq.mshrMissRate::cpu.data     0.882073                       # mshr miss rate for WriteLineReq accesses (Ratio)
system.cpu.dcache.WriteLineReq.mshrMissRate::total     0.882073                       # mshr miss rate for WriteLineReq accesses (Ratio)
system.cpu.dcache.WriteLineReq.avgMshrMissLatency::cpu.data 15800.768692                       # average WriteLineReq mshr miss latency ((Tick/Count))
system.cpu.dcache.WriteLineReq.avgMshrMissLatency::total 15800.768692                       # average WriteLineReq mshr miss latency ((Tick/Count))
system.cpu.dcache.WriteReq.hits::cpu.data     16604034                       # number of WriteReq hits (Count)
system.cpu.dcache.WriteReq.hits::total       16604034                       # number of WriteReq hits (Count)
system.cpu.dcache.WriteReq.misses::cpu.data      2652550                       # number of WriteReq misses (Count)
system.cpu.dcache.WriteReq.misses::total      2652550                       # number of WriteReq misses (Count)
system.cpu.dcache.WriteReq.missLatency::cpu.data  88993497357                       # number of WriteReq miss ticks (Tick)
system.cpu.dcache.WriteReq.missLatency::total  88993497357                       # number of WriteReq miss ticks (Tick)
system.cpu.dcache.WriteReq.accesses::cpu.data     19256584                       # number of WriteReq accesses(hits+misses) (Count)
system.cpu.dcache.WriteReq.accesses::total     19256584                       # number of WriteReq accesses(hits+misses) (Count)
system.cpu.dcache.WriteReq.missRate::cpu.data     0.137748                       # miss rate for WriteReq accesses (Ratio)
system.cpu.dcache.WriteReq.missRate::total     0.137748                       # miss rate for WriteReq accesses (Ratio)
system.cpu.dcache.WriteReq.avgMissLatency::cpu.data 33550.167709                       # average WriteReq miss latency ((Tick/Count))
system.cpu.dcache.WriteReq.avgMissLatency::total 33550.167709                       # average WriteReq miss latency ((Tick/Count))
system.cpu.dcache.WriteReq.mshrHits::cpu.data      2288140                       # number of WriteReq MSHR hits (Count)
system.cpu.dcache.WriteReq.mshrHits::total      2288140                       # number of WriteReq MSHR hits (Count)
system.cpu.dcache.WriteReq.mshrMisses::cpu.data       364410                       # number of WriteReq MSHR misses (Count)
system.cpu.dcache.WriteReq.mshrMisses::total       364410                       # number of WriteReq MSHR misses (Count)
system.cpu.dcache.WriteReq.mshrUncacheable::cpu.data        24445                       # number of WriteReq MSHR uncacheable (Count)
system.cpu.dcache.WriteReq.mshrUncacheable::total        24445                       # number of WriteReq MSHR uncacheable (Count)
system.cpu.dcache.WriteReq.mshrMissLatency::cpu.data  18060259811                       # number of WriteReq MSHR miss ticks (Tick)
system.cpu.dcache.WriteReq.mshrMissLatency::total  18060259811                       # number of WriteReq MSHR miss ticks (Tick)
system.cpu.dcache.WriteReq.mshrMissRate::cpu.data     0.018924                       # mshr miss rate for WriteReq accesses (Ratio)
system.cpu.dcache.WriteReq.mshrMissRate::total     0.018924                       # mshr miss rate for WriteReq accesses (Ratio)
system.cpu.dcache.WriteReq.avgMshrMissLatency::cpu.data 49560.274995                       # average WriteReq mshr miss latency ((Tick/Count))
system.cpu.dcache.WriteReq.avgMshrMissLatency::total 49560.274995                       # average WriteReq mshr miss latency ((Tick/Count))
system.cpu.dcache.power_state.pwrStateResidencyTicks::UNDEFINED 577156470500                       # Cumulative time (in ticks) in various power states (Tick)
system.cpu.dcache.tags.tagsInUse          1022.552794                       # Average ticks per tags in use ((Tick/Count))
system.cpu.dcache.tags.totalRefs             42246555                       # Total number of references to valid blocks. (Count)
system.cpu.dcache.tags.sampledRefs            1463806                       # Sample count of references to valid blocks. (Count)
system.cpu.dcache.tags.avgRefs              28.860761                       # Average number of references to valid blocks. ((Count/Count))
system.cpu.dcache.tags.warmupTick            13121000                       # The tick when the warmup percentage was hit. (Tick)
system.cpu.dcache.tags.occupancies::cpu.data  1022.552794                       # Average occupied blocks per tick, per requestor ((Count/Tick))
system.cpu.dcache.tags.avgOccs::cpu.data     0.998587                       # Average percentage of cache occupancy ((Ratio/Tick))
system.cpu.dcache.tags.avgOccs::total        0.998587                       # Average percentage of cache occupancy ((Ratio/Tick))
system.cpu.dcache.tags.occupanciesTaskId::1024         1024                       # Occupied blocks per task id (Count)
system.cpu.dcache.tags.ageTaskId_1024::0          142                       # Occupied blocks per task id, per block age (Count)
system.cpu.dcache.tags.ageTaskId_1024::1          745                       # Occupied blocks per task id, per block age (Count)
system.cpu.dcache.tags.ageTaskId_1024::2          134                       # Occupied blocks per task id, per block age (Count)
system.cpu.dcache.tags.ageTaskId_1024::3            3                       # Occupied blocks per task id, per block age (Count)
system.cpu.dcache.tags.ratioOccsTaskId::1024            1                       # Ratio of occupied blocks and all blocks, per task id (Ratio)
system.cpu.dcache.tags.tagAccesses           92195500                       # Number of tag accesses (Count)
system.cpu.dcache.tags.dataAccesses          92195500                       # Number of data accesses (Count)
system.cpu.dcache.tags.power_state.pwrStateResidencyTicks::UNDEFINED 577156470500                       # Cumulative time (in ticks) in various power states (Tick)
system.cpu.decode.idleCycles                114663019                       # Number of cycles decode is idle (Cycle)
system.cpu.decode.blockedCycles             130595442                       # Number of cycles decode is blocked (Cycle)
system.cpu.decode.runCycles                  25344700                       # Number of cycles decode is running (Cycle)
system.cpu.decode.unblockCycles               4294078                       # Number of cycles decode is unblocking (Cycle)
system.cpu.decode.squashCycles                1112505                       # Number of cycles decode is squashing (Cycle)
system.cpu.decode.branchResolved             13997857                       # Number of times decode resolved a branch (Count)
system.cpu.decode.branchMispred                513991                       # Number of times decode detected a branch misprediction (Count)
system.cpu.decode.decodedInsts              161908808                       # Number of instructions handled by decode (Count)
system.cpu.decode.squashedInsts               1529558                       # Number of squashed instructions handled by decode (Count)
system.cpu.fetch.icacheStallCycles          103358012                       # Number of cycles fetch is stalled on an Icache miss (Cycle)
system.cpu.fetch.insts                      150470965                       # Number of instructions fetch has processed (Count)
system.cpu.fetch.branches                    33352327                       # Number of branches that fetch encountered (Count)
system.cpu.fetch.predictedBranches           19859468                       # Number of branches that fetch has predicted taken (Count)
system.cpu.fetch.cycles                     120432330                       # Number of cycles fetch has run and was not squashing or blocked (Cycle)
system.cpu.fetch.squashCycles                 3246022                       # Number of cycles fetch has spent squashing (Cycle)
system.cpu.fetch.tlbCycles                   49813795                       # Number of cycles fetch has spent waiting for tlb (Cycle)
system.cpu.fetch.miscStallCycles                27977                       # Number of cycles fetch has spent waiting on interrupts, or bad addresses, or out of MSHRs (Cycle)
system.cpu.fetch.pendingTrapStallCycles         95843                       # Number of stall cycles due to pending traps (Cycle)
system.cpu.fetch.pendingQuiesceStallCycles       643909                       # Number of stall cycles due to pending quiesce instructions (Cycle)
system.cpu.fetch.icacheWaitRetryStallCycles        14867                       # Number of stall cycles due to full MSHR (Cycle)
system.cpu.fetch.cacheLines                  24966971                       # Number of cache lines fetched (Count)
system.cpu.fetch.icacheSquashes                963300                       # Number of outstanding Icache misses that were squashed (Count)
system.cpu.fetch.tlbSquashes                    55543                       # Number of outstanding ITLB misses that were squashed (Count)
system.cpu.fetch.nisnDist::samples          276009744                       # Number of instructions fetched each cycle (Total) (Count)
system.cpu.fetch.nisnDist::mean              0.633928                       # Number of instructions fetched each cycle (Total) (Count)
system.cpu.fetch.nisnDist::stdev             1.864419                       # Number of instructions fetched each cycle (Total) (Count)
system.cpu.fetch.nisnDist::underflows               0      0.00%      0.00% # Number of instructions fetched each cycle (Total) (Count)
system.cpu.fetch.nisnDist::0                238689975     86.48%     86.48% # Number of instructions fetched each cycle (Total) (Count)
system.cpu.fetch.nisnDist::1                  4984351      1.81%     88.28% # Number of instructions fetched each cycle (Total) (Count)
system.cpu.fetch.nisnDist::2                  5225355      1.89%     90.18% # Number of instructions fetched each cycle (Total) (Count)
system.cpu.fetch.nisnDist::3                  4597840      1.67%     91.84% # Number of instructions fetched each cycle (Total) (Count)
system.cpu.fetch.nisnDist::4                  4350597      1.58%     93.42% # Number of instructions fetched each cycle (Total) (Count)
system.cpu.fetch.nisnDist::5                  3466104      1.26%     94.68% # Number of instructions fetched each cycle (Total) (Count)
system.cpu.fetch.nisnDist::6                  2317196      0.84%     95.52% # Number of instructions fetched each cycle (Total) (Count)
system.cpu.fetch.nisnDist::7                  1921069      0.70%     96.21% # Number of instructions fetched each cycle (Total) (Count)
system.cpu.fetch.nisnDist::8                 10457257      3.79%    100.00% # Number of instructions fetched each cycle (Total) (Count)
system.cpu.fetch.nisnDist::overflows                0      0.00%    100.00% # Number of instructions fetched each cycle (Total) (Count)
system.cpu.fetch.nisnDist::min_value                0                       # Number of instructions fetched each cycle (Total) (Count)
system.cpu.fetch.nisnDist::max_value                8                       # Number of instructions fetched each cycle (Total) (Count)
system.cpu.fetch.nisnDist::total            276009744                       # Number of instructions fetched each cycle (Total) (Count)
system.cpu.fetch.branchRate                  0.064576                       # Number of branch fetches per cycle (Ratio)
system.cpu.fetch.rate                        0.291338                       # Number of inst fetches per cycle ((Count/Cycle))
system.cpu.icache.demandHits::cpu.inst       22103155                       # number of demand (read+write) hits (Count)
system.cpu.icache.demandHits::total          22103155                       # number of demand (read+write) hits (Count)
system.cpu.icache.overallHits::cpu.inst      22103155                       # number of overall hits (Count)
system.cpu.icache.overallHits::total         22103155                       # number of overall hits (Count)
system.cpu.icache.demandMisses::cpu.inst      2862400                       # number of demand (read+write) misses (Count)
[...]
system.membus.pktCount_system.cpu.dcache.mem_side_port::system.realview.bootmem.port            8                       # Packet count per connected requestor and responder (Count)
system.membus.pktCount_system.cpu.dcache.mem_side_port::system.realview.generic_timer_mem.pio            6                       # Packet count per connected requestor and responder (Count)
system.membus.pktCount_system.cpu.dcache.mem_side_port::system.realview.generic_timer_mem.frames0.pio           10                       # Packet count per connected requestor and responder (Count)
system.membus.pktCount_system.cpu.dcache.mem_side_port::system.realview.gic.pio         3282                       # Packet count per connected requestor and responder (Count)
system.membus.pktCount_system.cpu.dcache.mem_side_port::system.mem_ctrls.port      4014769                       # Packet count per connected requestor and responder (Count)
system.membus.pktCount_system.cpu.dcache.mem_side_port::total      4089345                       # Packet count per connected requestor and responder (Count)
system.membus.pktCount_system.cpu.mmu.itb_walker.port::system.mem_ctrls.port      1239157                       # Packet count per connected requestor and responder (Count)
system.membus.pktCount_system.cpu.mmu.itb_walker.port::total      1239157                       # Packet count per connected requestor and responder (Count)
system.membus.pktCount_system.cpu.mmu.dtb_walker.port::system.mem_ctrls.port       380398                       # Packet count per connected requestor and responder (Count)
system.membus.pktCount_system.cpu.mmu.dtb_walker.port::total       380398                       # Packet count per connected requestor and responder (Count)
system.membus.pktCount::total                13613470                       # Packet count per connected requestor and responder (Count)
system.membus.pktSize_system.iocache.mem_side_port::system.mem_ctrls.port      6659200                       # Cumulative packet size per connected requestor and responder (Byte)
system.membus.pktSize_system.iocache.mem_side_port::total      6659200                       # Cumulative packet size per connected requestor and responder (Byte)
system.membus.pktSize_system.cpu.icache.mem_side_port::system.realview.bootmem.port          448                       # Cumulative packet size per connected requestor and responder (Byte)
system.membus.pktSize_system.cpu.icache.mem_side_port::system.mem_ctrls.port    328288192                       # Cumulative packet size per connected requestor and responder (Byte)
system.membus.pktSize_system.cpu.icache.mem_side_port::total    328288640                       # Cumulative packet size per connected requestor and responder (Byte)
system.membus.pktSize_system.cpu.dcache.mem_side_port::system.bridge.cpu_side_port        65005                       # Cumulative packet size per connected requestor and responder (Byte)
system.membus.pktSize_system.cpu.dcache.mem_side_port::system.realview.bootmem.port           28                       # Cumulative packet size per connected requestor and responder (Byte)
system.membus.pktSize_system.cpu.dcache.mem_side_port::system.realview.generic_timer_mem.pio           12                       # Cumulative packet size per connected requestor and responder (Byte)
system.membus.pktSize_system.cpu.dcache.mem_side_port::system.realview.generic_timer_mem.frames0.pio           20                       # Cumulative packet size per connected requestor and responder (Byte)
system.membus.pktSize_system.cpu.dcache.mem_side_port::system.realview.gic.pio         6564                       # Cumulative packet size per connected requestor and responder (Byte)
system.membus.pktSize_system.cpu.dcache.mem_side_port::system.mem_ctrls.port    130224548                       # Cumulative packet size per connected requestor and responder (Byte)
system.membus.pktSize_system.cpu.dcache.mem_side_port::total    130296177                       # Cumulative packet size per connected requestor and responder (Byte)
system.membus.pktSize_system.cpu.mmu.itb_walker.port::system.mem_ctrls.port      4938480                       # Cumulative packet size per connected requestor and responder (Byte)
system.membus.pktSize_system.cpu.mmu.itb_walker.port::total      4938480                       # Cumulative packet size per connected requestor and responder (Byte)
system.membus.pktSize_system.cpu.mmu.dtb_walker.port::system.mem_ctrls.port      1487496                       # Cumulative packet size per connected requestor and responder (Byte)
system.membus.pktSize_system.cpu.mmu.dtb_walker.port::total      1487496                       # Cumulative packet size per connected requestor and responder (Byte)
system.membus.pktSize::total                471669993                       # Cumulative packet size per connected requestor and responder (Byte)
system.membus.snoops                            14388                       # Total snoops (Count)
system.membus.snoopTraffic                     163816                       # Total snoop traffic (Byte)
system.membus.snoopFanout::samples            5094133                       # Request fanout histogram (Count)
system.membus.snoopFanout::mean              0.031864                       # Request fanout histogram (Count)
system.membus.snoopFanout::stdev             0.175638                       # Request fanout histogram (Count)
system.membus.snoopFanout::underflows               0      0.00%      0.00% # Request fanout histogram (Count)
system.membus.snoopFanout::0                  4931814     96.81%     96.81% # Request fanout histogram (Count)
system.membus.snoopFanout::1                   162319      3.19%    100.00% # Request fanout histogram (Count)
system.membus.snoopFanout::2                        0      0.00%    100.00% # Request fanout histogram (Count)
system.membus.snoopFanout::3                        0      0.00%    100.00% # Request fanout histogram (Count)
system.membus.snoopFanout::overflows                0      0.00%    100.00% # Request fanout histogram (Count)
system.membus.snoopFanout::min_value                0                       # Request fanout histogram (Count)
system.membus.snoopFanout::max_value                1                       # Request fanout histogram (Count)
system.membus.snoopFanout::total              5094133                       # Request fanout histogram (Count)
system.membus.badaddr_responder.power_state.pwrStateResidencyTicks::UNDEFINED 577156470500                       # Cumulative time (in ticks) in various power states (Tick)
system.membus.power_state.pwrStateResidencyTicks::UNDEFINED 577156470500                       # Cumulative time (in ticks) in various power states (Tick)
system.membus.reqLayer0.occupancy            62835494                       # Layer occupancy (ticks) (Tick)
system.membus.reqLayer0.utilization               0.0                       # Layer utilization (Ratio)
system.membus.reqLayer1.occupancy               15328                       # Layer occupancy (ticks) (Tick)
system.membus.reqLayer1.utilization               0.0                       # Layer utilization (Ratio)
system.membus.reqLayer11.occupancy            2485500                       # Layer occupancy (ticks) (Tick)
system.membus.reqLayer11.utilization              0.0                       # Layer utilization (Ratio)
system.membus.reqLayer14.occupancy        25063446574                       # Layer occupancy (ticks) (Tick)
system.membus.reqLayer14.utilization              0.0                       # Layer utilization (Ratio)
system.membus.reqLayer5.occupancy                4500                       # Layer occupancy (ticks) (Tick)
system.membus.reqLayer5.utilization               0.0                       # Layer utilization (Ratio)
system.membus.reqLayer9.occupancy                7500                       # Layer occupancy (ticks) (Tick)
system.membus.reqLayer9.utilization               0.0                       # Layer utilization (Ratio)
system.membus.respLayer1.occupancy            3614693                       # Layer occupancy (ticks) (Tick)
system.membus.respLayer1.utilization              0.0                       # Layer utilization (Ratio)
system.membus.respLayer2.occupancy        13712901350                       # Layer occupancy (ticks) (Tick)
system.membus.respLayer2.utilization              0.0                       # Layer utilization (Ratio)
system.membus.respLayer3.occupancy         5272353814                       # Layer occupancy (ticks) (Tick)
system.membus.respLayer3.utilization              0.0                       # Layer utilization (Ratio)
system.membus.respLayer4.occupancy         1508494114                       # Layer occupancy (ticks) (Tick)
system.membus.respLayer4.utilization              0.0                       # Layer utilization (Ratio)
system.membus.respLayer5.occupancy          482001987                       # Layer occupancy (ticks) (Tick)
system.membus.respLayer5.utilization              0.0                       # Layer utilization (Ratio)
system.membus.snoop_filter.totRequests        8512895                       # Total number of requests made to the snoop filter. (Count)
system.membus.snoop_filter.hitSingleRequests      4294192                       # Number of requests hitting in the snoop filter with a single holder of the requested data. (Count)
system.membus.snoop_filter.hitMultiRequests         1609                       # Number of requests hitting in the snoop filter with multiple (>1) holders of the requested data. (Count)
system.membus.snoop_filter.totSnoops                0                       # Total number of snoops made to the snoop filter. (Count)
system.membus.snoop_filter.hitSingleSnoops            0                       # Number of snoops hitting in the snoop filter with a single holder of the requested data. (Count)
system.membus.snoop_filter.hitMultiSnoops            0                       # Number of snoops hitting in the snoop filter with multiple (>1) holders of the requested data. (Count)
system.pci_ide.disks.IdeDisk.dmaReadFullPages            1                       # Number of full page size DMA reads (not PRD). (Count)
system.pci_ide.disks.IdeDisk.dmaReadBytes         4096                       # Number of bytes transfered via DMA reads (not PRD). (Byte)
system.pci_ide.disks.IdeDisk.dmaReadTxs             1                       # Number of DMA read transactions (not PRD). (Count)
system.pci_ide.disks.IdeDisk.dmaWriteFullPages         1621                       # Number of full page size DMA writes. (Count)
system.pci_ide.disks.IdeDisk.dmaWriteBytes      6645760                       # Number of bytes transfered via DMA writes. (Byte)
system.pci_ide.disks.IdeDisk.dmaWriteTxs         1627                       # Number of DMA write transactions. (Count)
system.pci_ide.power_state.pwrStateResidencyTicks::UNDEFINED 577156470500                       # Cumulative time (in ticks) in various power states (Tick)
system.realview.bootmem.bytesRead::cpu.inst          448                       # Number of bytes read from this memory (Byte)
system.realview.bootmem.bytesRead::cpu.data           28                       # Number of bytes read from this memory (Byte)
system.realview.bootmem.bytesRead::total          476                       # Number of bytes read from this memory (Byte)
system.realview.bootmem.bytesInstRead::cpu.inst          448                       # Number of instructions bytes read from this memory (Byte)
system.realview.bootmem.bytesInstRead::total          448                       # Number of instructions bytes read from this memory (Byte)
system.realview.bootmem.numReads::cpu.inst            7                       # Number of read requests responded to by this memory (Count)
system.realview.bootmem.numReads::cpu.data            4                       # Number of read requests responded to by this memory (Count)
system.realview.bootmem.numReads::total            11                       # Number of read requests responded to by this memory (Count)
system.realview.bootmem.bwRead::cpu.inst          776                       # Total read bandwidth from this memory ((Byte/Second))
system.realview.bootmem.bwRead::cpu.data           49                       # Total read bandwidth from this memory ((Byte/Second))
system.realview.bootmem.bwRead::total             825                       # Total read bandwidth from this memory ((Byte/Second))
system.realview.bootmem.bwInstRead::cpu.inst          776                       # Instruction read bandwidth from this memory ((Byte/Second))
system.realview.bootmem.bwInstRead::total          776                       # Instruction read bandwidth from this memory ((Byte/Second))
system.realview.bootmem.bwTotal::cpu.inst          776                       # Total bandwidth to/from this memory ((Byte/Second))
system.realview.bootmem.bwTotal::cpu.data           49                       # Total bandwidth to/from this memory ((Byte/Second))
system.realview.bootmem.bwTotal::total            825                       # Total bandwidth to/from this memory ((Byte/Second))
system.realview.bootmem.power_state.pwrStateResidencyTicks::UNDEFINED 577156470500                       # Cumulative time (in ticks) in various power states (Tick)
system.realview.clock24MHz.clock                41667                       # Clock period in ticks (Tick)
system.realview.clock32KHz.clock             31250000                       # Clock period in ticks (Tick)
system.realview.dcc.osc_cpu.clock               16667                       # Clock period in ticks (Tick)
system.realview.dcc.osc_ddr.clock               25000                       # Clock period in ticks (Tick)
system.realview.dcc.osc_hsbm.clock              25000                       # Clock period in ticks (Tick)
system.realview.dcc.osc_pxl.clock               42105                       # Clock period in ticks (Tick)
system.realview.dcc.osc_smb.clock               20000                       # Clock period in ticks (Tick)
system.realview.dcc.osc_sys.clock               16667                       # Clock period in ticks (Tick)
system.realview.el2_watchdog.power_state.pwrStateResidencyTicks::UNDEFINED 577156470500                       # Cumulative time (in ticks) in various power states (Tick)
system.realview.energy_ctrl.power_state.pwrStateResidencyTicks::UNDEFINED 577156470500                       # Cumulative time (in ticks) in various power states (Tick)
system.realview.flash0.power_state.pwrStateResidencyTicks::UNDEFINED 577156470500                       # Cumulative time (in ticks) in various power states (Tick)
system.realview.flash1.power_state.pwrStateResidencyTicks::UNDEFINED 577156470500                       # Cumulative time (in ticks) in various power states (Tick)
system.realview.generic_timer_mem.frames0.power_state.pwrStateResidencyTicks::UNDEFINED 577156470500                       # Cumulative time (in ticks) in various power states (Tick)
system.realview.generic_timer_mem.frames1.power_state.pwrStateResidencyTicks::UNDEFINED 577156470500                       # Cumulative time (in ticks) in various power states (Tick)
system.realview.generic_timer_mem.power_state.pwrStateResidencyTicks::UNDEFINED 577156470500                       # Cumulative time (in ticks) in various power states (Tick)
system.realview.gic.power_state.pwrStateResidencyTicks::UNDEFINED 577156470500                       # Cumulative time (in ticks) in various power states (Tick)
system.realview.gicv2m.power_state.pwrStateResidencyTicks::UNDEFINED 577156470500                       # Cumulative time (in ticks) in various power states (Tick)
system.realview.io_voltage.voltage           3.300000                       # Voltage in Volts (Volt)
system.realview.kmi0.power_state.pwrStateResidencyTicks::UNDEFINED 577156470500                       # Cumulative time (in ticks) in various power states (Tick)
system.realview.kmi1.power_state.pwrStateResidencyTicks::UNDEFINED 577156470500                       # Cumulative time (in ticks) in various power states (Tick)
system.realview.mcc.osc_clcd.clock              42105                       # Clock period in ticks (Tick)
system.realview.mcc.osc_mcc.clock               20000                       # Clock period in ticks (Tick)
system.realview.mcc.osc_peripheral.clock        41667                       # Clock period in ticks (Tick)
system.realview.mcc.osc_system_bus.clock        41667                       # Clock period in ticks (Tick)
system.realview.non_trusted_sram.power_state.pwrStateResidencyTicks::UNDEFINED 577156470500                       # Cumulative time (in ticks) in various power states (Tick)
system.realview.pci_host.power_state.pwrStateResidencyTicks::UNDEFINED 577156470500                       # Cumulative time (in ticks) in various power states (Tick)
system.realview.pwr_ctrl.power_state.pwrStateResidencyTicks::UNDEFINED 577156470500                       # Cumulative time (in ticks) in various power states (Tick)
system.realview.realview_io.power_state.pwrStateResidencyTicks::UNDEFINED 577156470500                       # Cumulative time (in ticks) in various power states (Tick)
system.realview.rtc.power_state.pwrStateResidencyTicks::UNDEFINED 577156470500                       # Cumulative time (in ticks) in various power states (Tick)
system.realview.system_watchdog.power_state.pwrStateResidencyTicks::UNDEFINED 577156470500                       # Cumulative time (in ticks) in various power states (Tick)
system.realview.trusted_sram.power_state.pwrStateResidencyTicks::UNDEFINED 577156470500                       # Cumulative time (in ticks) in various power states (Tick)
system.realview.trusted_watchdog.power_state.pwrStateResidencyTicks::UNDEFINED 577156470500                       # Cumulative time (in ticks) in various power states (Tick)
system.realview.uart0.power_state.pwrStateResidencyTicks::UNDEFINED 577156470500                       # Cumulative time (in ticks) in various power states (Tick)
system.realview.uart1.power_state.pwrStateResidencyTicks::UNDEFINED 577156470500                       # Cumulative time (in ticks) in various power states (Tick)
system.realview.uart2.power_state.pwrStateResidencyTicks::UNDEFINED 577156470500                       # Cumulative time (in ticks) in various power states (Tick)
system.realview.uart3.power_state.pwrStateResidencyTicks::UNDEFINED 577156470500                       # Cumulative time (in ticks) in various power states (Tick)
system.realview.vgic.power_state.pwrStateResidencyTicks::UNDEFINED 577156470500                       # Cumulative time (in ticks) in various power states (Tick)
system.realview.vio0.power_state.pwrStateResidencyTicks::UNDEFINED 577156470500                       # Cumulative time (in ticks) in various power states (Tick)
system.realview.vio1.power_state.pwrStateResidencyTicks::UNDEFINED 577156470500                       # Cumulative time (in ticks) in various power states (Tick)
system.realview.vram.power_state.pwrStateResidencyTicks::UNDEFINED 577156470500                       # Cumulative time (in ticks) in various power states (Tick)
system.realview.watchdog.power_state.pwrStateResidencyTicks::UNDEFINED 577156470500                       # Cumulative time (in ticks) in various power states (Tick)
system.voltage_domain.voltage                       1                       # Voltage in Volts (Volt)
system.workload.inst.arm                            0                       # number of arm instructions executed (Count)
system.workload.inst.quiesce                     2041                       # number of quiesce instructions executed (Count)

---------- End Simulation Statistics   ----------
