
---------- Begin Simulation Statistics ----------
simSeconds                                   1.820284                       # Number of seconds simulated (Second)
simTicks                                 1820283557004                       # Number of ticks simulated (Tick)
finalTick                                1820283557004                       # Number of ticks from beginning of simulation (restored from checkpoints and never reset) (Tick)
simFreq                                  1000000000000                       # The number of ticks per simulated second ((Tick/Second))
hostSeconds                                   5104.06                       # Real time elapsed on the host (Second)
hostTickRate                                356634374                       # The number of ticks simulated per host second (ticks/s) ((Tick/Second))
hostMemory                                    1472088                       # Number of bytes of host memory used (Byte)
simInsts                                    362084878                       # Number of instructions simulated (Count)
simOps                                      415116913                       # Number of ops (including micro ops) simulated (Count)
hostInstRate                                    70940                       # Simulator instruction rate (inst/s) ((Count/Second))
hostOpRate                                      81331                       # Simulator op (including micro ops) rate (op/s) ((Count/Second))
system.bridge.power_state.pwrStateResidencyTicks::UNDEFINED 1820283557004                       # Cumulative time (in ticks) in various power states (Tick)
system.clk_domain.clock                          1000                       # Clock period in ticks (Tick)
system.cpu0.numCycles                       267272391                       # Number of cpu cycles simulated (Cycle)
system.cpu0.numWorkItemsStarted                     0                       # Number of work items this cpu started (Count)
system.cpu0.numWorkItemsCompleted                   0                       # Number of work items this cpu completed (Count)
system.cpu0.instsAdded                      278494102                       # Number of instructions added to the IQ (excludes non-spec) (Count)
system.cpu0.nonSpecInstsAdded                 1998342                       # Number of non-speculative instructions added to the IQ (Count)
system.cpu0.instsIssued                     279465150                       # Number of instructions issued (Count)
system.cpu0.squashedInstsIssued                156771                       # Number of squashed instructions issued (Count)
system.cpu0.squashedInstsExamined            20274285                       # Number of squashed instructions iterated over during squash; mainly for profiling (Count)
system.cpu0.squashedOperandsExamined         15421364                       # Number of squashed operands that are examined and possibly removed from graph (Count)
system.cpu0.squashedNonSpecRemoved             180291                       # Number of squashed non-spec instructions that were removed (Count)
system.cpu0.numIssuedDist::samples          260899863                       # Number of insts issued each cycle (Count)
system.cpu0.numIssuedDist::mean              1.071159                       # Number of insts issued each cycle (Count)
system.cpu0.numIssuedDist::stdev             1.795501                       # Number of insts issued each cycle (Count)
system.cpu0.numIssuedDist::underflows               0      0.00%      0.00% # Number of insts issued each cycle (Count)
system.cpu0.numIssuedDist::0                165309058     63.36%     63.36% # Number of insts issued each cycle (Count)
system.cpu0.numIssuedDist::1                 28016837     10.74%     74.10% # Number of insts issued each cycle (Count)
system.cpu0.numIssuedDist::2                 18993682      7.28%     81.38% # Number of insts issued each cycle (Count)
system.cpu0.numIssuedDist::3                 17247567      6.61%     87.99% # Number of insts issued each cycle (Count)
system.cpu0.numIssuedDist::4                 12312322      4.72%     92.71% # Number of insts issued each cycle (Count)
system.cpu0.numIssuedDist::5                  8413527      3.22%     95.93% # Number of insts issued each cycle (Count)
system.cpu0.numIssuedDist::6                  5928456      2.27%     98.21% # Number of insts issued each cycle (Count)
system.cpu0.numIssuedDist::7                  2596723      1.00%     99.20% # Number of insts issued each cycle (Count)
system.cpu0.numIssuedDist::8                  2081691      0.80%    100.00% # Number of insts issued each cycle (Count)
system.cpu0.numIssuedDist::overflows                0      0.00%    100.00% # Number of insts issued each cycle (Count)
system.cpu0.numIssuedDist::min_value                0                       # Number of insts issued each cycle (Count)
system.cpu0.numIssuedDist::max_value                8                       # Number of insts issued each cycle (Count)
system.cpu0.numIssuedDist::total            260899863                       # Number of insts issued each cycle (Count)
system.cpu0.statFuBusy::No_OpClass                  0      0.00%      0.00% # attempts to use FU when none available (Count)
system.cpu0.statFuBusy::IntAlu                 816632     23.95%     23.95% # attempts to use FU when none available (Count)
system.cpu0.statFuBusy::IntMult                  2649      0.08%     24.03% # attempts to use FU when none available (Count)
system.cpu0.statFuBusy::IntDiv                  20526      0.60%     24.63% # attempts to use FU when none available (Count)
system.cpu0.statFuBusy::FloatAdd                    0      0.00%     24.63% # attempts to use FU when none available (Count)
system.cpu0.statFuBusy::FloatCmp                    0      0.00%     24.63% # attempts to use FU when none available (Count)
system.cpu0.statFuBusy::FloatCvt                    0      0.00%     24.63% # attempts to use FU when none available (Count)
system.cpu0.statFuBusy::FloatMult                   0      0.00%     24.63% # attempts to use FU when none available (Count)
system.cpu0.statFuBusy::FloatMultAcc                0      0.00%     24.63% # attempts to use FU when none available (Count)
system.cpu0.statFuBusy::FloatDiv                    0      0.00%     24.63% # attempts to use FU when none available (Count)
system.cpu0.statFuBusy::FloatMisc                   0      0.00%     24.63% # attempts to use FU when none available (Count)
system.cpu0.statFuBusy::FloatSqrt                   0      0.00%     24.63% # attempts to use FU when none available (Count)
system.cpu0.statFuBusy::SimdAdd                     0      0.00%     24.63% # attempts to use FU when none available (Count)
system.cpu0.statFuBusy::SimdAddAcc                  0      0.00%     24.63% # attempts to use FU when none available (Count)
system.cpu0.statFuBusy::SimdAlu                     0      0.00%     24.63% # attempts to use FU when none available (Count)
system.cpu0.statFuBusy::SimdCmp                     0      0.00%     24.63% # attempts to use FU when none available (Count)
system.cpu0.statFuBusy::SimdCvt                     0      0.00%     24.63% # attempts to use FU when none available (Count)
system.cpu0.statFuBusy::SimdMisc                    0      0.00%     24.63% # attempts to use FU when none available (Count)
system.cpu0.statFuBusy::SimdMult                    0      0.00%     24.63% # attempts to use FU when none available (Count)
system.cpu0.statFuBusy::SimdMultAcc                 0      0.00%     24.63% # attempts to use FU when none available (Count)
system.cpu0.statFuBusy::SimdShift                   0      0.00%     24.63% # attempts to use FU when none available (Count)
system.cpu0.statFuBusy::SimdShiftAcc                0      0.00%     24.63% # attempts to use FU when none available (Count)
system.cpu0.statFuBusy::SimdDiv                     0      0.00%     24.63% # attempts to use FU when none available (Count)
system.cpu0.statFuBusy::SimdSqrt                    0      0.00%     24.63% # attempts to use FU when none available (Count)
system.cpu0.statFuBusy::SimdFloatAdd                0      0.00%     24.63% # attempts to use FU when none available (Count)
system.cpu0.statFuBusy::SimdFloatAlu                0      0.00%     24.63% # attempts to use FU when none available (Count)
system.cpu0.statFuBusy::SimdFloatCmp                0      0.00%     24.63% # attempts to use FU when none available (Count)
system.cpu0.statFuBusy::SimdFloatCvt                0      0.00%     24.63% # attempts to use FU when none available (Count)
system.cpu0.statFuBusy::SimdFloatDiv                0      0.00%     24.63% # attempts to use FU when none available (Count)
system.cpu0.statFuBusy::SimdFloatMisc               0      0.00%     24.63% # attempts to use FU when none available (Count)
system.cpu0.statFuBusy::SimdFloatMult               0      0.00%     24.63% # attempts to use FU when none available (Count)
system.cpu0.statFuBusy::SimdFloatMultAcc            0      0.00%     24.63% # attempts to use FU when none available (Count)
system.cpu0.statFuBusy::SimdFloatSqrt               0      0.00%     24.63% # attempts to use FU when none available (Count)
system.cpu0.statFuBusy::SimdReduceAdd               0      0.00%     24.63% # attempts to use FU when none available (Count)
system.cpu0.statFuBusy::SimdReduceAlu               0      0.00%     24.63% # attempts to use FU when none available (Count)
system.cpu0.statFuBusy::SimdReduceCmp               0      0.00%     24.63% # attempts to use FU when none available (Count)
system.cpu0.statFuBusy::SimdFloatReduceAdd            0      0.00%     24.63% # attempts to use FU when none available (Count)
system.cpu0.statFuBusy::SimdFloatReduceCmp            0      0.00%     24.63% # attempts to use FU when none available (Count)
system.cpu0.statFuBusy::SimdAes                     0      0.00%     24.63% # attempts to use FU when none available (Count)
system.cpu0.statFuBusy::SimdAesMix                  0      0.00%     24.63% # attempts to use FU when none available (Count)
system.cpu0.statFuBusy::SimdSha1Hash                0      0.00%     24.63% # attempts to use FU when none available (Count)
system.cpu0.statFuBusy::SimdSha1Hash2               0      0.00%     24.63% # attempts to use FU when none available (Count)
system.cpu0.statFuBusy::SimdSha256Hash              0      0.00%     24.63% # attempts to use FU when none available (Count)
system.cpu0.statFuBusy::SimdSha256Hash2             0      0.00%     24.63% # attempts to use FU when none available (Count)
system.cpu0.statFuBusy::SimdShaSigma2               0      0.00%     24.63% # attempts to use FU when none available (Count)
system.cpu0.statFuBusy::SimdShaSigma3               0      0.00%     24.63% # attempts to use FU when none available (Count)
system.cpu0.statFuBusy::SimdPredAlu                 0      0.00%     24.63% # attempts to use FU when none available (Count)
system.cpu0.statFuBusy::MemRead               1941422     56.95%     81.58% # attempts to use FU when none available (Count)
system.cpu0.statFuBusy::MemWrite               627876     18.42%    100.00% # attempts to use FU when none available (Count)
system.cpu0.statFuBusy::FloatMemRead                0      0.00%    100.00% # attempts to use FU when none available (Count)
system.cpu0.statFuBusy::FloatMemWrite               0      0.00%    100.00% # attempts to use FU when none available (Count)
system.cpu0.statFuBusy::IprAccess                   0      0.00%    100.00% # attempts to use FU when none available (Count)
system.cpu0.statFuBusy::InstPrefetch                0      0.00%    100.00% # attempts to use FU when none available (Count)
system.cpu0.statIssuedInstType_0::No_OpClass        53221      0.02%      0.02% # Number of instructions issued per FU type, per thread (Count)
system.cpu0.statIssuedInstType_0::IntAlu    199459483     71.37%     71.39% # Number of instructions issued per FU type, per thread (Count)
system.cpu0.statIssuedInstType_0::IntMult       154610      0.06%     71.45% # Number of instructions issued per FU type, per thread (Count)
system.cpu0.statIssuedInstType_0::IntDiv         5647      0.00%     71.45% # Number of instructions issued per FU type, per thread (Count)
system.cpu0.statIssuedInstType_0::FloatAdd            0      0.00%     71.45% # Number of instructions issued per FU type, per thread (Count)
system.cpu0.statIssuedInstType_0::FloatCmp            0      0.00%     71.45% # Number of instructions issued per FU type, per thread (Count)
system.cpu0.statIssuedInstType_0::FloatCvt            0      0.00%     71.45% # Number of instructions issued per FU type, per thread (Count)
system.cpu0.statIssuedInstType_0::FloatMult            0      0.00%     71.45% # Number of instructions issued per FU type, per thread (Count)
system.cpu0.statIssuedInstType_0::FloatMultAcc            0      0.00%     71.45% # Number of instructions issued per FU type, per thread (Count)
system.cpu0.statIssuedInstType_0::FloatDiv            0      0.00%     71.45% # Number of instructions issued per FU type, per thread (Count)
system.cpu0.statIssuedInstType_0::FloatMisc          512      0.00%     71.45% # Number of instructions issued per FU type, per thread (Count)
system.cpu0.statIssuedInstType_0::FloatSqrt            0      0.00%     71.45% # Number of instructions issued per FU type, per thread (Count)
system.cpu0.statIssuedInstType_0::SimdAdd          280      0.00%     71.45% # Number of instructions issued per FU type, per thread (Count)
system.cpu0.statIssuedInstType_0::SimdAddAcc            0      0.00%     71.45% # Number of instructions issued per FU type, per thread (Count)
system.cpu0.statIssuedInstType_0::SimdAlu          308      0.00%     71.45% # Number of instructions issued per FU type, per thread (Count)
system.cpu0.statIssuedInstType_0::SimdCmp          796      0.00%     71.45% # Number of instructions issued per FU type, per thread (Count)
system.cpu0.statIssuedInstType_0::SimdCvt            0      0.00%     71.45% # Number of instructions issued per FU type, per thread (Count)
system.cpu0.statIssuedInstType_0::SimdMisc          381      0.00%     71.45% # Number of instructions issued per FU type, per thread (Count)
system.cpu0.statIssuedInstType_0::SimdMult            0      0.00%     71.45% # Number of instructions issued per FU type, per thread (Count)
system.cpu0.statIssuedInstType_0::SimdMultAcc            0      0.00%     71.45% # Number of instructions issued per FU type, per thread (Count)
system.cpu0.statIssuedInstType_0::SimdShift            0      0.00%     71.45% # Number of instructions issued per FU type, per thread (Count)
system.cpu0.statIssuedInstType_0::SimdShiftAcc            0      0.00%     71.45% # Number of instructions issued per FU type, per thread (Count)
system.cpu0.statIssuedInstType_0::SimdDiv            0      0.00%     71.45% # Number of instructions issued per FU type, per thread (Count)
system.cpu0.statIssuedInstType_0::SimdSqrt            0      0.00%     71.45% # Number of instructions issued per FU type, per thread (Count)
system.cpu0.statIssuedInstType_0::SimdFloatAdd            0      0.00%     71.45% # Number of instructions issued per FU type, per thread (Count)
system.cpu0.statIssuedInstType_0::SimdFloatAlu            0      0.00%     71.45% # Number of instructions issued per FU type, per thread (Count)
system.cpu0.statIssuedInstType_0::SimdFloatCmp            0      0.00%     71.45% # Number of instructions issued per FU type, per thread (Count)
system.cpu0.statIssuedInstType_0::SimdFloatCvt            0      0.00%     71.45% # Number of instructions issued per FU type, per thread (Count)
system.cpu0.statIssuedInstType_0::SimdFloatDiv            0      0.00%     71.45% # Number of instructions issued per FU type, per thread (Count)
system.cpu0.statIssuedInstType_0::SimdFloatMisc            0      0.00%     71.45% # Number of instructions issued per FU type, per thread (Count)
system.cpu0.statIssuedInstType_0::SimdFloatMult            0      0.00%     71.45% # Number of instructions issued per FU type, per thread (Count)
system.cpu0.statIssuedInstType_0::SimdFloatMultAcc            0      0.00%     71.45% # Number of instructions issued per FU type, per thread (Count)
system.cpu0.statIssuedInstType_0::SimdFloatSqrt            0      0.00%     71.45% # Number of instructions issued per FU type, per thread (Count)
system.cpu0.statIssuedInstType_0::SimdReduceAdd            0      0.00%     71.45% # Number of instructions issued per FU type, per thread (Count)
system.cpu0.statIssuedInstType_0::SimdReduceAlu            0      0.00%     71.45% # Number of instructions issued per FU type, per thread (Count)
system.cpu0.statIssuedInstType_0::SimdReduceCmp            0      0.00%     71.45% # Number of instructions issued per FU type, per thread (Count)
system.cpu0.statIssuedInstType_0::SimdFloatReduceAdd            0      0.00%     71.45% # Number of instructions issued per FU type, per thread (Count)
system.cpu0.statIssuedInstType_0::SimdFloatReduceCmp            0      0.00%     71.45% # Number of instructions issued per FU type, per thread (Count)
system.cpu0.statIssuedInstType_0::SimdAes            0      0.00%     71.45% # Number of instructions issued per FU type, per thread (Count)
system.cpu0.statIssuedInstType_0::SimdAesMix            0      0.00%     71.45% # Number of instructions issued per FU type, per thread (Count)
system.cpu0.statIssuedInstType_0::SimdSha1Hash            0      0.00%     71.45% # Number of instructions issued per FU type, per thread (Count)
system.cpu0.statIssuedInstType_0::SimdSha1Hash2            0      0.00%     71.45% # Number of instructions issued per FU type, per thread (Count)
system.cpu0.statIssuedInstType_0::SimdSha256Hash            0      0.00%     71.45% # Number of instructions issued per FU type, per thread (Count)
system.cpu0.statIssuedInstType_0::SimdSha256Hash2            0      0.00%     71.45% # Number of instructions issued per FU type, per thread (Count)
system.cpu0.statIssuedInstType_0::SimdShaSigma2            0      0.00%     71.45% # Number of instructions issued per FU type, per thread (Count)
system.cpu0.statIssuedInstType_0::SimdShaSigma3            0      0.00%     71.45% # Number of instructions issued per FU type, per thread (Count)
system.cpu0.statIssuedInstType_0::SimdPredAlu            0      0.00%     71.45% # Number of instructions issued per FU type, per thread (Count)
system.cpu0.statIssuedInstType_0::MemRead     47683539     17.06%     88.51% # Number of instructions issued per FU type, per thread (Count)
system.cpu0.statIssuedInstType_0::MemWrite     32106373     11.49%    100.00% # Number of instructions issued per FU type, per thread (Count)
system.cpu0.statIssuedInstType_0::FloatMemRead            0      0.00%    100.00% # Number of instructions issued per FU type, per thread (Count)
system.cpu0.statIssuedInstType_0::FloatMemWrite            0      0.00%    100.00% # Number of instructions issued per FU type, per thread (Count)
system.cpu0.statIssuedInstType_0::IprAccess            0      0.00%    100.00% # Number of instructions issued per FU type, per thread (Count)
system.cpu0.statIssuedInstType_0::InstPrefetch            0      0.00%    100.00% # Number of instructions issued per FU type, per thread (Count)
system.cpu0.statIssuedInstType_0::total     279465150                       # Number of instructions issued per FU type, per thread (Count)
system.cpu0.issueRate                        1.045619                       # Inst issue rate ((Count/Cycle))
system.cpu0.fuBusy                            3409105                       # FU busy when requested (Count)
system.cpu0.fuBusyRate                       0.012199                       # FU busy rate (busy events/executed inst) ((Count/Count))
system.cpu0.intInstQueueReads               823378833                       # Number of integer instruction queue reads (Count)
system.cpu0.intInstQueueWrites              300778943                       # Number of integer instruction queue writes (Count)
system.cpu0.intInstQueueWakeupAccesses      271051897                       # Number of integer instruction queue wakeup accesses (Count)
system.cpu0.fpInstQueueReads                        0                       # Number of floating instruction queue reads (Count)
system.cpu0.fpInstQueueWrites                       0                       # Number of floating instruction queue writes (Count)
system.cpu0.fpInstQueueWakeupAccesses               0                       # Number of floating instruction queue wakeup accesses (Count)
system.cpu0.vecInstQueueReads                   17206                       # Number of vector instruction queue reads (Count)
system.cpu0.vecInstQueueWrites                  10345                       # Number of vector instruction queue writes (Count)
system.cpu0.vecInstQueueWakeupAccesses           7856                       # Number of vector instruction queue wakeup accesses (Count)
system.cpu0.intAluAccesses                  282812160                       # Number of integer alu accesses (Count)
system.cpu0.fpAluAccesses                           0                       # Number of floating point alu accesses (Count)
system.cpu0.vecAluAccesses                       8874                       # Number of vector alu accesses (Count)
system.cpu0.idleCycles                              0                       # Number of cycles IEW is idle (Cycle)
system.cpu0.squashCycles                      1221501                       # Number of cycles IEW is squashing (Cycle)
system.cpu0.blockCycles                      26557558                       # Number of cycles IEW is blocking (Cycle)
system.cpu0.unblockCycles                     3760382                       # Number of cycles IEW is unblocking (Cycle)
system.cpu0.dispatchedInsts                 283469453                       # Number of instructions dispatched to IQ (Count)
system.cpu0.dispSquashedInsts                  363448                       # Number of squashed instructions skipped by dispatch (Count)
system.cpu0.dispLoadInsts                    42778148                       # Number of dispatched load instructions (Count)
system.cpu0.dispStoreInsts                   32521223                       # Number of dispatched store instructions (Count)
system.cpu0.dispNonSpecInsts                  1306462                       # Number of dispatched non-speculative instructions (Count)
system.cpu0.iqFullEvents                       107956                       # Number of times the IQ has become full, causing a stall (Count)
system.cpu0.lsqFullEvents                     3583118                       # Number of times the LSQ has become full, causing a stall (Count)
system.cpu0.memOrderViolationEvents             22788                       # Number of memory order violations (Count)
system.cpu0.predictedTakenIncorrect            394521                       # Number of branches that were predicted taken incorrectly (Count)
system.cpu0.predictedNotTakenIncorrect         587503                       # Number of branches that were predicted not taken incorrectly (Count)
system.cpu0.branchMispredicts                  982024                       # Number of branch mispredicts detected at execute (Count)
system.cpu0.numInsts                        277063647                       # Number of executed instructions (Count)
system.cpu0.numLoadInsts                     46976688                       # Number of load instructions executed (Count)
system.cpu0.numSquashedInsts                  1894743                       # Number of squashed instructions skipped in execute (Count)
system.cpu0.numSwp                                  0                       # Number of swp insts executed (Count)
system.cpu0.numNop                            2977009                       # Number of nop insts executed (Count)
system.cpu0.numRefs                          78789054                       # Number of memory reference insts executed (Count)
system.cpu0.numBranches                      53679352                       # Number of branches executed (Count)
system.cpu0.numStoreInsts                    31812366                       # Number of stores executed (Count)
system.cpu0.numRate                          1.036634                       # Inst execution rate ((Count/Cycle))
system.cpu0.instsToCommit                   271292093                       # Cumulative count of insts sent to commit (Count)
system.cpu0.writebackCount                  271059753                       # Cumulative count of insts written-back (Count)
system.cpu0.producerInst                    141695426                       # Number of instructions producing a value (Count)
system.cpu0.consumerInst                    242592101                       # Number of instructions consuming a value (Count)
system.cpu0.wbRate                           1.014170                       # Insts written-back per cycle ((Count/Cycle))
system.cpu0.wbFanout                         0.584089                       # Average fanout of values written-back ((Count/Count))
system.cpu0.timesIdled                         625138                       # Number of times that the entire CPU went into an idle state and unscheduled itself (Count)
system.cpu0.idleCycles                        6372528                       # Total number of cycles that the CPU has spent unscheduled due to idling (Cycle)
system.cpu0.quiesceCycles                  5198951457                       # Total number of cycles that CPU has spent quiesced or waiting for an interrupt (Cycle)
system.cpu0.committedInsts                  228878869                       # Number of Instructions Simulated (Count)
system.cpu0.committedOps                    260218158                       # Number of Ops (including micro ops) Simulated (Count)
system.cpu0.cpi                              1.167746                       # CPI: Cycles Per Instruction ((Cycle/Count))
system.cpu0.totalCpi                         1.167746                       # CPI: Total CPI of All Threads ((Cycle/Count))
system.cpu0.ipc                              0.856351                       # IPC: Instructions Per Cycle ((Count/Cycle))
system.cpu0.totalIpc                         0.856351                       # IPC: Total IPC of All Threads ((Count/Cycle))
system.cpu0.intRegfileReads                 334235480                       # Number of integer regfile reads (Count)
system.cpu0.intRegfileWrites                196075803                       # Number of integer regfile writes (Count)
system.cpu0.vecRegfileReads                      8085                       # number of vector regfile reads (Count)
system.cpu0.vecRegfileWrites                     2887                       # number of vector regfile writes (Count)
system.cpu0.ccRegfileReads                   76478847                       # number of cc regfile reads (Count)
system.cpu0.ccRegfileWrites                  75918342                       # number of cc regfile writes (Count)
system.cpu0.miscRegfileReads               1585992901                       # number of misc regfile reads (Count)
system.cpu0.miscRegfileWrites                 3445118                       # number of misc regfile writes (Count)
system.cpu0.MemDepUnit__0.insertedLoads      42778148                       # Number of loads inserted to the mem dependence unit. (Count)
system.cpu0.MemDepUnit__0.insertedStores     32521223                       # Number of stores inserted to the mem dependence unit. (Count)
system.cpu0.MemDepUnit__0.conflictingLoads      2754629                       # Number of conflicting loads. (Count)
system.cpu0.MemDepUnit__0.conflictingStores      2623128                       # Number of conflicting stores. (Count)
system.cpu0.MemDepUnit__1.insertedLoads             0                       # Number of loads inserted to the mem dependence unit. (Count)
system.cpu0.MemDepUnit__1.insertedStores            0                       # Number of stores inserted to the mem dependence unit. (Count)
system.cpu0.MemDepUnit__1.conflictingLoads            0                       # Number of conflicting loads. (Count)
system.cpu0.MemDepUnit__1.conflictingStores            0                       # Number of conflicting stores. (Count)
system.cpu0.MemDepUnit__2.insertedLoads             0                       # Number of loads inserted to the mem dependence unit. (Count)
system.cpu0.MemDepUnit__2.insertedStores            0                       # Number of stores inserted to the mem dependence unit. (Count)
system.cpu0.MemDepUnit__2.conflictingLoads            0                       # Number of conflicting loads. (Count)
system.cpu0.MemDepUnit__2.conflictingStores            0                       # Number of conflicting stores. (Count)
system.cpu0.MemDepUnit__3.insertedLoads             0                       # Number of loads inserted to the mem dependence unit. (Count)
system.cpu0.MemDepUnit__3.insertedStores            0                       # Number of stores inserted to the mem dependence unit. (Count)
system.cpu0.MemDepUnit__3.conflictingLoads            0                       # Number of conflicting loads. (Count)
system.cpu0.MemDepUnit__3.conflictingStores            0                       # Number of conflicting stores. (Count)
system.cpu0.branchPred.lookups               60655954                       # Number of BP lookups (Count)
system.cpu0.branchPred.condPredicted         41582839                       # Number of conditional branches predicted (Count)
system.cpu0.branchPred.condIncorrect          1051809                       # Number of conditional branches incorrect (Count)
system.cpu0.branchPred.BTBLookups            26598316                       # Number of BTB lookups (Count)
system.cpu0.branchPred.BTBHits               25856796                       # Number of BTB hits (Count)
system.cpu0.branchPred.BTBHitRatio           0.972122                       # BTB Hit Ratio (Ratio)
system.cpu0.branchPred.RASUsed                7373165                       # Number of times the RAS was used to get a target. (Count)
system.cpu0.branchPred.RASIncorrect             24692                       # Number of incorrect RAS predictions. (Count)
system.cpu0.branchPred.indirectLookups        1520283                       # Number of indirect predictor lookups. (Count)
system.cpu0.branchPred.indirectHits           1470526                       # Number of indirect target hits. (Count)
system.cpu0.branchPred.indirectMisses           49757                       # Number of indirect misses. (Count)
system.cpu0.branchPred.indirectMispredicted        11808                       # Number of mispredicted indirect branches. (Count)
system.cpu0.commit.commitSquashedInsts       20672815                       # The number of squashed insts skipped by commit (Count)
system.cpu0.commit.commitNonSpecStalls        1818051                       # The number of times commit has been forced to stall to communicate backwards (Count)
system.cpu0.commit.branchMispredicts           860598                       # The number of times a branch was mispredicted (Count)
system.cpu0.commit.numCommittedDist::samples    257692886                       # Number of insts commited each cycle (Count)
system.cpu0.commit.numCommittedDist::mean     1.019742                       # Number of insts commited each cycle (Count)
system.cpu0.commit.numCommittedDist::stdev     2.020697                       # Number of insts commited each cycle (Count)
system.cpu0.commit.numCommittedDist::underflows            0      0.00%      0.00% # Number of insts commited each cycle (Count)
system.cpu0.commit.numCommittedDist::0      171873221     66.70%     66.70% # Number of insts commited each cycle (Count)
system.cpu0.commit.numCommittedDist::1       33370247     12.95%     79.65% # Number of insts commited each cycle (Count)
system.cpu0.commit.numCommittedDist::2       16709762      6.48%     86.13% # Number of insts commited each cycle (Count)
system.cpu0.commit.numCommittedDist::3        8802612      3.42%     89.55% # Number of insts commited each cycle (Count)
system.cpu0.commit.numCommittedDist::4        6558262      2.54%     92.09% # Number of insts commited each cycle (Count)
system.cpu0.commit.numCommittedDist::5        3001794      1.16%     93.26% # Number of insts commited each cycle (Count)
system.cpu0.commit.numCommittedDist::6        4388725      1.70%     94.96% # Number of insts commited each cycle (Count)
system.cpu0.commit.numCommittedDist::7        1897942      0.74%     95.70% # Number of insts commited each cycle (Count)
system.cpu0.commit.numCommittedDist::8       11090321      4.30%    100.00% # Number of insts commited each cycle (Count)
system.cpu0.commit.numCommittedDist::overflows            0      0.00%    100.00% # Number of insts commited each cycle (Count)
system.cpu0.commit.numCommittedDist::min_value            0                       # Number of insts commited each cycle (Count)
system.cpu0.commit.numCommittedDist::max_value            8                       # Number of insts commited each cycle (Count)
system.cpu0.commit.numCommittedDist::total    257692886                       # Number of insts commited each cycle (Count)
system.cpu0.commit.instsCommitted           231440848                       # Number of instructions committed (Count)
system.cpu0.commit.opsCommitted             262780137                       # Number of ops (including micro ops) committed (Count)
system.cpu0.commit.memRefs                   70670183                       # Number of memory references committed (Count)
system.cpu0.commit.loads                     39476925                       # Number of loads committed (Count)
system.cpu0.commit.amos                           160                       # Number of atomic instructions committed (Count)
system.cpu0.commit.membars                    1228853                       # Number of memory barriers committed (Count)
system.cpu0.commit.branches                  51371832                       # Number of branches committed (Count)
system.cpu0.commit.vectorInstructions            6847                       # Number of committed Vector instructions. (Count)
system.cpu0.commit.floating                         0                       # Number of committed floating point instructions. (Count)
system.cpu0.commit.integer                  237532632                       # Number of committed integer instructions. (Count)
system.cpu0.commit.functionCalls              6126655                       # Number of function calls committed. (Count)
system.cpu0.commit.committedInstType_0::No_OpClass        49263      0.02%      0.02% # Class of committed instruction (Count)
system.cpu0.commit.committedInstType_0::IntAlu    191921846     73.04%     73.05% # Class of committed instruction (Count)
system.cpu0.commit.committedInstType_0::IntMult       132302      0.05%     73.10% # Class of committed instruction (Count)
system.cpu0.commit.committedInstType_0::IntDiv         4915      0.00%     73.11% # Class of committed instruction (Count)
system.cpu0.commit.committedInstType_0::FloatAdd            0      0.00%     73.11% # Class of committed instruction (Count)
system.cpu0.commit.committedInstType_0::FloatCmp            0      0.00%     73.11% # Class of committed instruction (Count)
system.cpu0.commit.committedInstType_0::FloatCvt            0      0.00%     73.11% # Class of committed instruction (Count)
system.cpu0.commit.committedInstType_0::FloatMult            0      0.00%     73.11% # Class of committed instruction (Count)
system.cpu0.commit.committedInstType_0::FloatMultAcc            0      0.00%     73.11% # Class of committed instruction (Count)
system.cpu0.commit.committedInstType_0::FloatDiv            0      0.00%     73.11% # Class of committed instruction (Count)
system.cpu0.commit.committedInstType_0::FloatMisc          351      0.00%     73.11% # Class of committed instruction (Count)
system.cpu0.commit.committedInstType_0::FloatSqrt            0      0.00%     73.11% # Class of committed instruction (Count)
system.cpu0.commit.committedInstType_0::SimdAdd          217      0.00%     73.11% # Class of committed instruction (Count)
system.cpu0.commit.committedInstType_0::SimdAddAcc            0      0.00%     73.11% # Class of committed instruction (Count)
system.cpu0.commit.committedInstType_0::SimdAlu          238      0.00%     73.11% # Class of committed instruction (Count)
system.cpu0.commit.committedInstType_0::SimdCmp          502      0.00%     73.11% # Class of committed instruction (Count)
system.cpu0.commit.committedInstType_0::SimdCvt            0      0.00%     73.11% # Class of committed instruction (Count)
system.cpu0.commit.committedInstType_0::SimdMisc          320      0.00%     73.11% # Class of committed instruction (Count)
system.cpu0.commit.committedInstType_0::SimdMult            0      0.00%     73.11% # Class of committed instruction (Count)
system.cpu0.commit.committedInstType_0::SimdMultAcc            0      0.00%     73.11% # Class of committed instruction (Count)
system.cpu0.commit.committedInstType_0::SimdShift            0      0.00%     73.11% # Class of committed instruction (Count)
system.cpu0.commit.committedInstType_0::SimdShiftAcc            0      0.00%     73.11% # Class of committed instruction (Count)
system.cpu0.commit.committedInstType_0::SimdDiv            0      0.00%     73.11% # Class of committed instruction (Count)
system.cpu0.commit.committedInstType_0::SimdSqrt            0      0.00%     73.11% # Class of committed instruction (Count)
system.cpu0.commit.committedInstType_0::SimdFloatAdd            0      0.00%     73.11% # Class of committed instruction (Count)
system.cpu0.commit.committedInstType_0::SimdFloatAlu            0      0.00%     73.11% # Class of committed instruction (Count)
system.cpu0.commit.committedInstType_0::SimdFloatCmp            0      0.00%     73.11% # Class of committed instruction (Count)
system.cpu0.commit.committedInstType_0::SimdFloatCvt            0      0.00%     73.11% # Class of committed instruction (Count)
system.cpu0.commit.committedInstType_0::SimdFloatDiv            0      0.00%     73.11% # Class of committed instruction (Count)
system.cpu0.commit.committedInstType_0::SimdFloatMisc            0      0.00%     73.11% # Class of committed instruction (Count)
system.cpu0.commit.committedInstType_0::SimdFloatMult            0      0.00%     73.11% # Class of committed instruction (Count)
system.cpu0.commit.committedInstType_0::SimdFloatMultAcc            0      0.00%     73.11% # Class of committed instruction (Count)
system.cpu0.commit.committedInstType_0::SimdFloatSqrt            0      0.00%     73.11% # Class of committed instruction (Count)
system.cpu0.commit.committedInstType_0::SimdReduceAdd            0      0.00%     73.11% # Class of committed instruction (Count)
system.cpu0.commit.committedInstType_0::SimdReduceAlu            0      0.00%     73.11% # Class of committed instruction (Count)
system.cpu0.commit.committedInstType_0::SimdReduceCmp            0      0.00%     73.11% # Class of committed instruction (Count)
system.cpu0.commit.committedInstType_0::SimdFloatReduceAdd            0      0.00%     73.11% # Class of committed instruction (Count)
system.cpu0.commit.committedInstType_0::SimdFloatReduceCmp            0      0.00%     73.11% # Class of committed instruction (Count)
system.cpu0.commit.committedInstType_0::SimdAes            0      0.00%     73.11% # Class of committed instruction (Count)
system.cpu0.commit.committedInstType_0::SimdAesMix            0      0.00%     73.11% # Class of committed instruction (Count)
system.cpu0.commit.committedInstType_0::SimdSha1Hash            0      0.00%     73.11% # Class of committed instruction (Count)
system.cpu0.commit.committedInstType_0::SimdSha1Hash2            0      0.00%     73.11% # Class of committed instruction (Count)
system.cpu0.commit.committedInstType_0::SimdSha256Hash            0      0.00%     73.11% # Class of committed instruction (Count)
system.cpu0.commit.committedInstType_0::SimdSha256Hash2            0      0.00%     73.11% # Class of committed instruction (Count)
system.cpu0.commit.committedInstType_0::SimdShaSigma2            0      0.00%     73.11% # Class of committed instruction (Count)
system.cpu0.commit.committedInstType_0::SimdShaSigma3            0      0.00%     73.11% # Class of committed instruction (Count)
system.cpu0.commit.committedInstType_0::SimdPredAlu            0      0.00%     73.11% # Class of committed instruction (Count)
system.cpu0.commit.committedInstType_0::MemRead     39476925     15.02%     88.13% # Class of committed instruction (Count)
system.cpu0.commit.committedInstType_0::MemWrite     31193258     11.87%    100.00% # Class of committed instruction (Count)
system.cpu0.commit.committedInstType_0::FloatMemRead            0      0.00%    100.00% # Class of committed instruction (Count)
system.cpu0.commit.committedInstType_0::FloatMemWrite            0      0.00%    100.00% # Class of committed instruction (Count)
system.cpu0.commit.committedInstType_0::IprAccess            0      0.00%    100.00% # Class of committed instruction (Count)
system.cpu0.commit.committedInstType_0::InstPrefetch            0      0.00%    100.00% # Class of committed instruction (Count)
system.cpu0.commit.committedInstType_0::total    262780137                       # Class of committed instruction (Count)
system.cpu0.commit.commitEligibleSamples     11090321                       # number cycles where commit BW limit reached (Cycle)
system.cpu0.dcache.demandHits::cpu0.data     65123992                       # number of demand (read+write) hits (Count)
system.cpu0.dcache.demandHits::total         65123992                       # number of demand (read+write) hits (Count)
system.cpu0.dcache.overallHits::cpu0.data     65998569                       # number of overall hits (Count)
system.cpu0.dcache.overallHits::total        65998569                       # number of overall hits (Count)
system.cpu0.dcache.demandMisses::cpu0.data      3387634                       # number of demand (read+write) misses (Count)
system.cpu0.dcache.demandMisses::total        3387634                       # number of demand (read+write) misses (Count)
system.cpu0.dcache.overallMisses::cpu0.data      3537168                       # number of overall misses (Count)
system.cpu0.dcache.overallMisses::total       3537168                       # number of overall misses (Count)
system.cpu0.dcache.demandMissLatency::cpu0.data 189322937091                       # number of demand (read+write) miss ticks (Tick)
system.cpu0.dcache.demandMissLatency::total 189322937091                       # number of demand (read+write) miss ticks (Tick)
system.cpu0.dcache.overallMissLatency::cpu0.data 189322937091                       # number of overall miss ticks (Tick)
system.cpu0.dcache.overallMissLatency::total 189322937091                       # number of overall miss ticks (Tick)
system.cpu0.dcache.demandAccesses::cpu0.data     68511626                       # number of demand (read+write) accesses (Count)
system.cpu0.dcache.demandAccesses::total     68511626                       # number of demand (read+write) accesses (Count)
system.cpu0.dcache.overallAccesses::cpu0.data     69535737                       # number of overall (read+write) accesses (Count)
system.cpu0.dcache.overallAccesses::total     69535737                       # number of overall (read+write) accesses (Count)
system.cpu0.dcache.demandMissRate::cpu0.data     0.049446                       # miss rate for demand accesses (Ratio)
system.cpu0.dcache.demandMissRate::total     0.049446                       # miss rate for demand accesses (Ratio)
system.cpu0.dcache.overallMissRate::cpu0.data     0.050868                       # miss rate for overall accesses (Ratio)
system.cpu0.dcache.overallMissRate::total     0.050868                       # miss rate for overall accesses (Ratio)
system.cpu0.dcache.demandAvgMissLatency::cpu0.data 55886.479204                       # average overall miss latency ((Cycle/Count))
system.cpu0.dcache.demandAvgMissLatency::total 55886.479204                       # average overall miss latency ((Cycle/Count))
system.cpu0.dcache.overallAvgMissLatency::cpu0.data 53523.874775                       # average overall miss latency ((Cycle/Count))
system.cpu0.dcache.overallAvgMissLatency::total 53523.874775                       # average overall miss latency ((Cycle/Count))
system.cpu0.dcache.blockedCycles::no_mshrs     25771334                       # number of cycles access was blocked (Cycle)
system.cpu0.dcache.blockedCycles::no_targets        34891                       # number of cycles access was blocked (Cycle)
system.cpu0.dcache.blockedCauses::no_mshrs       451809                       # number of times access was blocked (Count)
system.cpu0.dcache.blockedCauses::no_targets          217                       # number of times access was blocked (Count)
system.cpu0.dcache.avgBlocked::no_mshrs     57.040329                       # average number of cycles each access was blocked ((Cycle/Count))
system.cpu0.dcache.avgBlocked::no_targets   160.788018                       # average number of cycles each access was blocked ((Cycle/Count))
system.cpu0.dcache.writebacks::writebacks       830257                       # number of writebacks (Count)
system.cpu0.dcache.writebacks::total           830257                       # number of writebacks (Count)
system.cpu0.dcache.demandMshrHits::cpu0.data      2437012                       # number of demand (read+write) MSHR hits (Count)
system.cpu0.dcache.demandMshrHits::total      2437012                       # number of demand (read+write) MSHR hits (Count)
system.cpu0.dcache.overallMshrHits::cpu0.data      2437012                       # number of overall MSHR hits (Count)
system.cpu0.dcache.overallMshrHits::total      2437012                       # number of overall MSHR hits (Count)
system.cpu0.dcache.demandMshrMisses::cpu0.data       950622                       # number of demand (read+write) MSHR misses (Count)
system.cpu0.dcache.demandMshrMisses::total       950622                       # number of demand (read+write) MSHR misses (Count)
system.cpu0.dcache.overallMshrMisses::cpu0.data      1093396                       # number of overall MSHR misses (Count)
system.cpu0.dcache.overallMshrMisses::total      1093396                       # number of overall MSHR misses (Count)
system.cpu0.dcache.overallMshrUncacheable::cpu0.data        49677                       # number of overall MSHR uncacheable misses (Count)
system.cpu0.dcache.overallMshrUncacheable::total        49677                       # number of overall MSHR uncacheable misses (Count)
system.cpu0.dcache.demandMshrMissLatency::cpu0.data  46517380451                       # number of demand (read+write) MSHR miss ticks (Tick)
system.cpu0.dcache.demandMshrMissLatency::total  46517380451                       # number of demand (read+write) MSHR miss ticks (Tick)
system.cpu0.dcache.overallMshrMissLatency::cpu0.data  49973312060                       # number of overall MSHR miss ticks (Tick)
system.cpu0.dcache.overallMshrMissLatency::total  49973312060                       # number of overall MSHR miss ticks (Tick)
system.cpu0.dcache.overallMshrUncacheableLatency::cpu0.data   5053028913                       # number of overall MSHR uncacheable ticks (Tick)
system.cpu0.dcache.overallMshrUncacheableLatency::total   5053028913                       # number of overall MSHR uncacheable ticks (Tick)
system.cpu0.dcache.demandMshrMissRate::cpu0.data     0.013875                       # mshr miss ratio for demand accesses (Ratio)
system.cpu0.dcache.demandMshrMissRate::total     0.013875                       # mshr miss ratio for demand accesses (Ratio)
system.cpu0.dcache.overallMshrMissRate::cpu0.data     0.015724                       # mshr miss ratio for overall accesses (Ratio)
system.cpu0.dcache.overallMshrMissRate::total     0.015724                       # mshr miss ratio for overall accesses (Ratio)
system.cpu0.dcache.demandAvgMshrMissLatency::cpu0.data 48933.624986                       # average overall mshr miss latency ((Cycle/Count))
system.cpu0.dcache.demandAvgMshrMissLatency::total 48933.624986                       # average overall mshr miss latency ((Cycle/Count))
system.cpu0.dcache.overallAvgMshrMissLatency::cpu0.data 45704.677957                       # average overall mshr miss latency ((Cycle/Count))
system.cpu0.dcache.overallAvgMshrMissLatency::total 45704.677957                       # average overall mshr miss latency ((Cycle/Count))
system.cpu0.dcache.overallAvgMshrUncacheableLatency::cpu0.data 101717.674437                       # average overall mshr uncacheable latency ((Cycle/Count))
system.cpu0.dcache.overallAvgMshrUncacheableLatency::total 101717.674437                       # average overall mshr uncacheable latency ((Cycle/Count))
system.cpu0.dcache.replacements               1007100                       # number of replacements (Count)
system.cpu0.dcache.CleanInvalidReq.missLatency::cpu0.data    331916751                       # number of CleanInvalidReq miss ticks (Tick)
system.cpu0.dcache.CleanInvalidReq.missLatency::total    331916751                       # number of CleanInvalidReq miss ticks (Tick)
system.cpu0.dcache.CleanInvalidReq.avgMissLatency::cpu0.data          inf                       # average CleanInvalidReq miss latency ((Tick/Count))
system.cpu0.dcache.CleanInvalidReq.avgMissLatency::total          inf                       # average CleanInvalidReq miss latency ((Tick/Count))
system.cpu0.dcache.CleanInvalidReq.mshrHits::cpu0.data         3172                       # number of CleanInvalidReq MSHR hits (Count)
system.cpu0.dcache.CleanInvalidReq.mshrHits::total         3172                       # number of CleanInvalidReq MSHR hits (Count)
system.cpu0.dcache.CleanInvalidReq.mshrMisses::cpu0.data         6513                       # number of CleanInvalidReq MSHR misses (Count)
system.cpu0.dcache.CleanInvalidReq.mshrMisses::total         6513                       # number of CleanInvalidReq MSHR misses (Count)
system.cpu0.dcache.CleanInvalidReq.mshrMissLatency::cpu0.data    582121824                       # number of CleanInvalidReq MSHR miss ticks (Tick)
system.cpu0.dcache.CleanInvalidReq.mshrMissLatency::total    582121824                       # number of CleanInvalidReq MSHR miss ticks (Tick)
system.cpu0.dcache.CleanInvalidReq.mshrMissRate::cpu0.data          inf                       # mshr miss rate for CleanInvalidReq accesses (Ratio)
system.cpu0.dcache.CleanInvalidReq.mshrMissRate::total          inf                       # mshr miss rate for CleanInvalidReq accesses (Ratio)
system.cpu0.dcache.CleanInvalidReq.avgMshrMissLatency::cpu0.data 89378.446799                       # average CleanInvalidReq mshr miss latency ((Tick/Count))
system.cpu0.dcache.CleanInvalidReq.avgMshrMissLatency::total 89378.446799                       # average CleanInvalidReq mshr miss latency ((Tick/Count))
system.cpu0.dcache.CleanSharedReq.missLatency::cpu0.data     47744208                       # number of CleanSharedReq miss ticks (Tick)
system.cpu0.dcache.CleanSharedReq.missLatency::total     47744208                       # number of CleanSharedReq miss ticks (Tick)
system.cpu0.dcache.CleanSharedReq.avgMissLatency::cpu0.data          inf                       # average CleanSharedReq miss latency ((Tick/Count))
system.cpu0.dcache.CleanSharedReq.avgMissLatency::total          inf                       # average CleanSharedReq miss latency ((Tick/Count))
system.cpu0.dcache.CleanSharedReq.mshrMisses::cpu0.data        23896                       # number of CleanSharedReq MSHR misses (Count)
system.cpu0.dcache.CleanSharedReq.mshrMisses::total        23896                       # number of CleanSharedReq MSHR misses (Count)
system.cpu0.dcache.CleanSharedReq.mshrMissLatency::cpu0.data     23896000                       # number of CleanSharedReq MSHR miss ticks (Tick)
system.cpu0.dcache.CleanSharedReq.mshrMissLatency::total     23896000                       # number of CleanSharedReq MSHR miss ticks (Tick)
system.cpu0.dcache.CleanSharedReq.mshrMissRate::cpu0.data          inf                       # mshr miss rate for CleanSharedReq accesses (Ratio)
system.cpu0.dcache.CleanSharedReq.mshrMissRate::total          inf                       # mshr miss rate for CleanSharedReq accesses (Ratio)
system.cpu0.dcache.CleanSharedReq.avgMshrMissLatency::cpu0.data         1000                       # average CleanSharedReq mshr miss latency ((Tick/Count))
system.cpu0.dcache.CleanSharedReq.avgMshrMissLatency::total         1000                       # average CleanSharedReq mshr miss latency ((Tick/Count))
system.cpu0.dcache.InvalidateReq.mshrMisses::cpu0.data          452                       # number of InvalidateReq MSHR misses (Count)
system.cpu0.dcache.InvalidateReq.mshrMisses::total          452                       # number of InvalidateReq MSHR misses (Count)
system.cpu0.dcache.InvalidateReq.mshrMissLatency::cpu0.data     18233082                       # number of InvalidateReq MSHR miss ticks (Tick)
system.cpu0.dcache.InvalidateReq.mshrMissLatency::total     18233082                       # number of InvalidateReq MSHR miss ticks (Tick)
system.cpu0.dcache.InvalidateReq.mshrMissRate::cpu0.data          inf                       # mshr miss rate for InvalidateReq accesses (Ratio)
system.cpu0.dcache.InvalidateReq.mshrMissRate::total          inf                       # mshr miss rate for InvalidateReq accesses (Ratio)
system.cpu0.dcache.InvalidateReq.avgMshrMissLatency::cpu0.data 40338.676991                       # average InvalidateReq mshr miss latency ((Tick/Count))
system.cpu0.dcache.InvalidateReq.avgMshrMissLatency::total 40338.676991                       # average InvalidateReq mshr miss latency ((Tick/Count))
system.cpu0.dcache.LoadLockedReq.hits::cpu0.data       865512                       # number of LoadLockedReq hits (Count)
system.cpu0.dcache.LoadLockedReq.hits::total       865512                       # number of LoadLockedReq hits (Count)
system.cpu0.dcache.LoadLockedReq.misses::cpu0.data        23354                       # number of LoadLockedReq misses (Count)
system.cpu0.dcache.LoadLockedReq.misses::total        23354                       # number of LoadLockedReq misses (Count)
system.cpu0.dcache.LoadLockedReq.missLatency::cpu0.data    344552769                       # number of LoadLockedReq miss ticks (Tick)
system.cpu0.dcache.LoadLockedReq.missLatency::total    344552769                       # number of LoadLockedReq miss ticks (Tick)
system.cpu0.dcache.LoadLockedReq.accesses::cpu0.data       888866                       # number of LoadLockedReq accesses(hits+misses) (Count)
system.cpu0.dcache.LoadLockedReq.accesses::total       888866                       # number of LoadLockedReq accesses(hits+misses) (Count)
system.cpu0.dcache.LoadLockedReq.missRate::cpu0.data     0.026274                       # miss rate for LoadLockedReq accesses (Ratio)
system.cpu0.dcache.LoadLockedReq.missRate::total     0.026274                       # miss rate for LoadLockedReq accesses (Ratio)
system.cpu0.dcache.LoadLockedReq.avgMissLatency::cpu0.data 14753.479875                       # average LoadLockedReq miss latency ((Tick/Count))
system.cpu0.dcache.LoadLockedReq.avgMissLatency::total 14753.479875                       # average LoadLockedReq miss latency ((Tick/Count))
system.cpu0.dcache.LoadLockedReq.mshrHits::cpu0.data        19935                       # number of LoadLockedReq MSHR hits (Count)
system.cpu0.dcache.LoadLockedReq.mshrHits::total        19935                       # number of LoadLockedReq MSHR hits (Count)
system.cpu0.dcache.LoadLockedReq.mshrMisses::cpu0.data         3419                       # number of LoadLockedReq MSHR misses (Count)
system.cpu0.dcache.LoadLockedReq.mshrMisses::total         3419                       # number of LoadLockedReq MSHR misses (Count)
system.cpu0.dcache.LoadLockedReq.mshrMissLatency::cpu0.data     38013615                       # number of LoadLockedReq MSHR miss ticks (Tick)
system.cpu0.dcache.LoadLockedReq.mshrMissLatency::total     38013615                       # number of LoadLockedReq MSHR miss ticks (Tick)
system.cpu0.dcache.LoadLockedReq.mshrMissRate::cpu0.data     0.003846                       # mshr miss rate for LoadLockedReq accesses (Ratio)
system.cpu0.dcache.LoadLockedReq.mshrMissRate::total     0.003846                       # mshr miss rate for LoadLockedReq accesses (Ratio)
system.cpu0.dcache.LoadLockedReq.avgMshrMissLatency::cpu0.data 11118.343083                       # average LoadLockedReq mshr miss latency ((Tick/Count))
system.cpu0.dcache.LoadLockedReq.avgMshrMissLatency::total 11118.343083                       # average LoadLockedReq mshr miss latency ((Tick/Count))
system.cpu0.dcache.ReadReq.hits::cpu0.data     37188638                       # number of ReadReq hits (Count)
system.cpu0.dcache.ReadReq.hits::total       37188638                       # number of ReadReq hits (Count)
system.cpu0.dcache.ReadReq.misses::cpu0.data       964677                       # number of ReadReq misses (Count)
system.cpu0.dcache.ReadReq.misses::total       964677                       # number of ReadReq misses (Count)
system.cpu0.dcache.ReadReq.missLatency::cpu0.data  27978858468                       # number of ReadReq miss ticks (Tick)
system.cpu0.dcache.ReadReq.missLatency::total  27978858468                       # number of ReadReq miss ticks (Tick)
system.cpu0.dcache.ReadReq.accesses::cpu0.data     38153315                       # number of ReadReq accesses(hits+misses) (Count)
system.cpu0.dcache.ReadReq.accesses::total     38153315                       # number of ReadReq accesses(hits+misses) (Count)
system.cpu0.dcache.ReadReq.missRate::cpu0.data     0.025284                       # miss rate for ReadReq accesses (Ratio)
system.cpu0.dcache.ReadReq.missRate::total     0.025284                       # miss rate for ReadReq accesses (Ratio)
system.cpu0.dcache.ReadReq.avgMissLatency::cpu0.data 29003.343573                       # average ReadReq miss latency ((Tick/Count))
system.cpu0.dcache.ReadReq.avgMissLatency::total 29003.343573                       # average ReadReq miss latency ((Tick/Count))
system.cpu0.dcache.ReadReq.mshrHits::cpu0.data       566566                       # number of ReadReq MSHR hits (Count)
system.cpu0.dcache.ReadReq.mshrHits::total       566566                       # number of ReadReq MSHR hits (Count)
system.cpu0.dcache.ReadReq.mshrMisses::cpu0.data       398111                       # number of ReadReq MSHR misses (Count)
system.cpu0.dcache.ReadReq.mshrMisses::total       398111                       # number of ReadReq MSHR misses (Count)
system.cpu0.dcache.ReadReq.mshrUncacheable::cpu0.data        25534                       # number of ReadReq MSHR uncacheable (Count)
system.cpu0.dcache.ReadReq.mshrUncacheable::total        25534                       # number of ReadReq MSHR uncacheable (Count)
system.cpu0.dcache.ReadReq.mshrMissLatency::cpu0.data  10495319175                       # number of ReadReq MSHR miss ticks (Tick)
system.cpu0.dcache.ReadReq.mshrMissLatency::total  10495319175                       # number of ReadReq MSHR miss ticks (Tick)
system.cpu0.dcache.ReadReq.mshrUncacheableLatency::cpu0.data   5053028913                       # number of ReadReq MSHR uncacheable ticks (Tick)
system.cpu0.dcache.ReadReq.mshrUncacheableLatency::total   5053028913                       # number of ReadReq MSHR uncacheable ticks (Tick)
system.cpu0.dcache.ReadReq.mshrMissRate::cpu0.data     0.010435                       # mshr miss rate for ReadReq accesses (Ratio)
system.cpu0.dcache.ReadReq.mshrMissRate::total     0.010435                       # mshr miss rate for ReadReq accesses (Ratio)
system.cpu0.dcache.ReadReq.avgMshrMissLatency::cpu0.data 26362.796243                       # average ReadReq mshr miss latency ((Tick/Count))
system.cpu0.dcache.ReadReq.avgMshrMissLatency::total 26362.796243                       # average ReadReq mshr miss latency ((Tick/Count))
system.cpu0.dcache.ReadReq.avgMshrUncacheableLatency::cpu0.data 197894.137738                       # average ReadReq mshr uncacheable latency ((Tick/Count))
system.cpu0.dcache.ReadReq.avgMshrUncacheableLatency::total 197894.137738                       # average ReadReq mshr uncacheable latency ((Tick/Count))
system.cpu0.dcache.SoftPFExReq.hits::cpu0.data       841093                       # number of SoftPFExReq hits (Count)
system.cpu0.dcache.SoftPFExReq.hits::total       841093                       # number of SoftPFExReq hits (Count)
system.cpu0.dcache.SoftPFExReq.misses::cpu0.data       141243                       # number of SoftPFExReq misses (Count)
system.cpu0.dcache.SoftPFExReq.misses::total       141243                       # number of SoftPFExReq misses (Count)
system.cpu0.dcache.SoftPFExReq.accesses::cpu0.data       982336                       # number of SoftPFExReq accesses(hits+misses) (Count)
system.cpu0.dcache.SoftPFExReq.accesses::total       982336                       # number of SoftPFExReq accesses(hits+misses) (Count)
system.cpu0.dcache.SoftPFExReq.missRate::cpu0.data     0.143783                       # miss rate for SoftPFExReq accesses (Ratio)
system.cpu0.dcache.SoftPFExReq.missRate::total     0.143783                       # miss rate for SoftPFExReq accesses (Ratio)
system.cpu0.dcache.SoftPFExReq.mshrMisses::cpu0.data       134786                       # number of SoftPFExReq MSHR misses (Count)
system.cpu0.dcache.SoftPFExReq.mshrMisses::total       134786                       # number of SoftPFExReq MSHR misses (Count)
system.cpu0.dcache.SoftPFExReq.mshrMissLatency::cpu0.data   3381501114                       # number of SoftPFExReq MSHR miss ticks (Tick)
system.cpu0.dcache.SoftPFExReq.mshrMissLatency::total   3381501114                       # number of SoftPFExReq MSHR miss ticks (Tick)
system.cpu0.dcache.SoftPFExReq.mshrMissRate::cpu0.data     0.137210                       # mshr miss rate for SoftPFExReq accesses (Ratio)
system.cpu0.dcache.SoftPFExReq.mshrMissRate::total     0.137210                       # mshr miss rate for SoftPFExReq accesses (Ratio)
system.cpu0.dcache.SoftPFExReq.avgMshrMissLatency::cpu0.data 25087.925408                       # average SoftPFExReq mshr miss latency ((Tick/Count))
system.cpu0.dcache.SoftPFExReq.avgMshrMissLatency::total 25087.925408                       # average SoftPFExReq mshr miss latency ((Tick/Count))
system.cpu0.dcache.SoftPFReq.hits::cpu0.data        33484                       # number of SoftPFReq hits (Count)
system.cpu0.dcache.SoftPFReq.hits::total        33484                       # number of SoftPFReq hits (Count)
system.cpu0.dcache.SoftPFReq.misses::cpu0.data         8291                       # number of SoftPFReq misses (Count)
system.cpu0.dcache.SoftPFReq.misses::total         8291                       # number of SoftPFReq misses (Count)
system.cpu0.dcache.SoftPFReq.accesses::cpu0.data        41775                       # number of SoftPFReq accesses(hits+misses) (Count)
system.cpu0.dcache.SoftPFReq.accesses::total        41775                       # number of SoftPFReq accesses(hits+misses) (Count)
system.cpu0.dcache.SoftPFReq.missRate::cpu0.data     0.198468                       # miss rate for SoftPFReq accesses (Ratio)
system.cpu0.dcache.SoftPFReq.missRate::total     0.198468                       # miss rate for SoftPFReq accesses (Ratio)
system.cpu0.dcache.SoftPFReq.mshrMisses::cpu0.data         7988                       # number of SoftPFReq MSHR misses (Count)
system.cpu0.dcache.SoftPFReq.mshrMisses::total         7988                       # number of SoftPFReq MSHR misses (Count)
system.cpu0.dcache.SoftPFReq.mshrMissLatency::cpu0.data     74430495                       # number of SoftPFReq MSHR miss ticks (Tick)
system.cpu0.dcache.SoftPFReq.mshrMissLatency::total     74430495                       # number of SoftPFReq MSHR miss ticks (Tick)
system.cpu0.dcache.SoftPFReq.mshrMissRate::cpu0.data     0.191215                       # mshr miss rate for SoftPFReq accesses (Ratio)
system.cpu0.dcache.SoftPFReq.mshrMissRate::total     0.191215                       # mshr miss rate for SoftPFReq accesses (Ratio)
system.cpu0.dcache.SoftPFReq.avgMshrMissLatency::cpu0.data  9317.788558                       # average SoftPFReq mshr miss latency ((Tick/Count))
system.cpu0.dcache.SoftPFReq.avgMshrMissLatency::total  9317.788558                       # average SoftPFReq mshr miss latency ((Tick/Count))
system.cpu0.dcache.StoreCondFailReq.missLatency::cpu0.data        26640                       # number of StoreCondFailReq miss ticks (Tick)
system.cpu0.dcache.StoreCondFailReq.missLatency::total        26640                       # number of StoreCondFailReq miss ticks (Tick)
system.cpu0.dcache.StoreCondFailReq.avgMissLatency::cpu0.data          inf                       # average StoreCondFailReq miss latency ((Tick/Count))
system.cpu0.dcache.StoreCondFailReq.avgMissLatency::total          inf                       # average StoreCondFailReq miss latency ((Tick/Count))
system.cpu0.dcache.StoreCondFailReq.mshrMissLatency::cpu0.data        25974                       # number of StoreCondFailReq MSHR miss ticks (Tick)
system.cpu0.dcache.StoreCondFailReq.mshrMissLatency::total        25974                       # number of StoreCondFailReq MSHR miss ticks (Tick)
system.cpu0.dcache.StoreCondFailReq.avgMshrMissLatency::cpu0.data          inf                       # average StoreCondFailReq mshr miss latency ((Tick/Count))
system.cpu0.dcache.StoreCondFailReq.avgMshrMissLatency::total          inf                       # average StoreCondFailReq mshr miss latency ((Tick/Count))
system.cpu0.dcache.StoreCondReq.hits::cpu0.data       779186                       # number of StoreCondReq hits (Count)
system.cpu0.dcache.StoreCondReq.hits::total       779186                       # number of StoreCondReq hits (Count)
system.cpu0.dcache.StoreCondReq.misses::cpu0.data         2678                       # number of StoreCondReq misses (Count)
system.cpu0.dcache.StoreCondReq.misses::total         2678                       # number of StoreCondReq misses (Count)
system.cpu0.dcache.StoreCondReq.missLatency::cpu0.data     24086889                       # number of StoreCondReq miss ticks (Tick)
system.cpu0.dcache.StoreCondReq.missLatency::total     24086889                       # number of StoreCondReq miss ticks (Tick)
system.cpu0.dcache.StoreCondReq.accesses::cpu0.data       781864                       # number of StoreCondReq accesses(hits+misses) (Count)
system.cpu0.dcache.StoreCondReq.accesses::total       781864                       # number of StoreCondReq accesses(hits+misses) (Count)
system.cpu0.dcache.StoreCondReq.missRate::cpu0.data     0.003425                       # miss rate for StoreCondReq accesses (Ratio)
system.cpu0.dcache.StoreCondReq.missRate::total     0.003425                       # miss rate for StoreCondReq accesses (Ratio)
system.cpu0.dcache.StoreCondReq.avgMissLatency::cpu0.data  8994.357356                       # average StoreCondReq miss latency ((Tick/Count))
system.cpu0.dcache.StoreCondReq.avgMissLatency::total  8994.357356                       # average StoreCondReq miss latency ((Tick/Count))
system.cpu0.dcache.StoreCondReq.mshrMisses::cpu0.data         2667                       # number of StoreCondReq MSHR misses (Count)
system.cpu0.dcache.StoreCondReq.mshrMisses::total         2667                       # number of StoreCondReq MSHR misses (Count)
system.cpu0.dcache.StoreCondReq.mshrMissLatency::cpu0.data     22311333                       # number of StoreCondReq MSHR miss ticks (Tick)
system.cpu0.dcache.StoreCondReq.mshrMissLatency::total     22311333                       # number of StoreCondReq MSHR miss ticks (Tick)
system.cpu0.dcache.StoreCondReq.mshrMissRate::cpu0.data     0.003411                       # mshr miss rate for StoreCondReq accesses (Ratio)
system.cpu0.dcache.StoreCondReq.mshrMissRate::total     0.003411                       # mshr miss rate for StoreCondReq accesses (Ratio)
system.cpu0.dcache.StoreCondReq.avgMshrMissLatency::cpu0.data  8365.704162                       # average StoreCondReq mshr miss latency ((Tick/Count))
system.cpu0.dcache.StoreCondReq.avgMshrMissLatency::total  8365.704162                       # average StoreCondReq mshr miss latency ((Tick/Count))
system.cpu0.dcache.SwapReq.hits::cpu0.data          155                       # number of SwapReq hits (Count)
system.cpu0.dcache.SwapReq.hits::total            155                       # number of SwapReq hits (Count)
system.cpu0.dcache.SwapReq.misses::cpu0.data            5                       # number of SwapReq misses (Count)
system.cpu0.dcache.SwapReq.misses::total            5                       # number of SwapReq misses (Count)
system.cpu0.dcache.SwapReq.missLatency::cpu0.data        43290                       # number of SwapReq miss ticks (Tick)
system.cpu0.dcache.SwapReq.missLatency::total        43290                       # number of SwapReq miss ticks (Tick)
system.cpu0.dcache.SwapReq.accesses::cpu0.data          160                       # number of SwapReq accesses(hits+misses) (Count)
system.cpu0.dcache.SwapReq.accesses::total          160                       # number of SwapReq accesses(hits+misses) (Count)
system.cpu0.dcache.SwapReq.missRate::cpu0.data     0.031250                       # miss rate for SwapReq accesses (Ratio)
system.cpu0.dcache.SwapReq.missRate::total     0.031250                       # miss rate for SwapReq accesses (Ratio)
system.cpu0.dcache.SwapReq.avgMissLatency::cpu0.data         8658                       # average SwapReq miss latency ((Tick/Count))
system.cpu0.dcache.SwapReq.avgMissLatency::total         8658                       # average SwapReq miss latency ((Tick/Count))
system.cpu0.dcache.SwapReq.mshrMisses::cpu0.data            5                       # number of SwapReq MSHR misses (Count)
system.cpu0.dcache.SwapReq.mshrMisses::total            5                       # number of SwapReq MSHR misses (Count)
system.cpu0.dcache.SwapReq.mshrMissLatency::cpu0.data        39960                       # number of SwapReq MSHR miss ticks (Tick)
system.cpu0.dcache.SwapReq.mshrMissLatency::total        39960                       # number of SwapReq MSHR miss ticks (Tick)
system.cpu0.dcache.SwapReq.mshrMissRate::cpu0.data     0.031250                       # mshr miss rate for SwapReq accesses (Ratio)
system.cpu0.dcache.SwapReq.mshrMissRate::total     0.031250                       # mshr miss rate for SwapReq accesses (Ratio)
system.cpu0.dcache.SwapReq.avgMshrMissLatency::cpu0.data         7992                       # average SwapReq mshr miss latency ((Tick/Count))
system.cpu0.dcache.SwapReq.avgMshrMissLatency::total         7992                       # average SwapReq mshr miss latency ((Tick/Count))
system.cpu0.dcache.WriteLineReq.hits::cpu0.data        75399                       # number of WriteLineReq hits (Count)
system.cpu0.dcache.WriteLineReq.hits::total        75399                       # number of WriteLineReq hits (Count)
system.cpu0.dcache.WriteLineReq.misses::cpu0.data       177361                       # number of WriteLineReq misses (Count)
system.cpu0.dcache.WriteLineReq.misses::total       177361                       # number of WriteLineReq misses (Count)
system.cpu0.dcache.WriteLineReq.missLatency::cpu0.data   7204555630                       # number of WriteLineReq miss ticks (Tick)
system.cpu0.dcache.WriteLineReq.missLatency::total   7204555630                       # number of WriteLineReq miss ticks (Tick)
system.cpu0.dcache.WriteLineReq.accesses::cpu0.data       252760                       # number of WriteLineReq accesses(hits+misses) (Count)
system.cpu0.dcache.WriteLineReq.accesses::total       252760                       # number of WriteLineReq accesses(hits+misses) (Count)
system.cpu0.dcache.WriteLineReq.missRate::cpu0.data     0.701697                       # miss rate for WriteLineReq accesses (Ratio)
system.cpu0.dcache.WriteLineReq.missRate::total     0.701697                       # miss rate for WriteLineReq accesses (Ratio)
system.cpu0.dcache.WriteLineReq.avgMissLatency::cpu0.data 40620.855938                       # average WriteLineReq miss latency ((Tick/Count))
system.cpu0.dcache.WriteLineReq.avgMissLatency::total 40620.855938                       # average WriteLineReq miss latency ((Tick/Count))
system.cpu0.dcache.WriteLineReq.mshrHits::cpu0.data         5483                       # number of WriteLineReq MSHR hits (Count)
system.cpu0.dcache.WriteLineReq.mshrHits::total         5483                       # number of WriteLineReq MSHR hits (Count)
system.cpu0.dcache.WriteLineReq.mshrMisses::cpu0.data       171878                       # number of WriteLineReq MSHR misses (Count)
system.cpu0.dcache.WriteLineReq.mshrMisses::total       171878                       # number of WriteLineReq MSHR misses (Count)
system.cpu0.dcache.WriteLineReq.mshrMissLatency::cpu0.data   6722191810                       # number of WriteLineReq MSHR miss ticks (Tick)
system.cpu0.dcache.WriteLineReq.mshrMissLatency::total   6722191810                       # number of WriteLineReq MSHR miss ticks (Tick)
system.cpu0.dcache.WriteLineReq.mshrMissRate::cpu0.data     0.680005                       # mshr miss rate for WriteLineReq accesses (Ratio)
system.cpu0.dcache.WriteLineReq.mshrMissRate::total     0.680005                       # mshr miss rate for WriteLineReq accesses (Ratio)
system.cpu0.dcache.WriteLineReq.avgMshrMissLatency::cpu0.data 39110.251516                       # average WriteLineReq mshr miss latency ((Tick/Count))
system.cpu0.dcache.WriteLineReq.avgMshrMissLatency::total 39110.251516                       # average WriteLineReq mshr miss latency ((Tick/Count))
system.cpu0.dcache.WriteReq.hits::cpu0.data     27859955                       # number of WriteReq hits (Count)
system.cpu0.dcache.WriteReq.hits::total      27859955                       # number of WriteReq hits (Count)
system.cpu0.dcache.WriteReq.misses::cpu0.data      2245596                       # number of WriteReq misses (Count)
system.cpu0.dcache.WriteReq.misses::total      2245596                       # number of WriteReq misses (Count)
system.cpu0.dcache.WriteReq.missLatency::cpu0.data 154139522993                       # number of WriteReq miss ticks (Tick)
system.cpu0.dcache.WriteReq.missLatency::total 154139522993                       # number of WriteReq miss ticks (Tick)
system.cpu0.dcache.WriteReq.accesses::cpu0.data     30105551                       # number of WriteReq accesses(hits+misses) (Count)
system.cpu0.dcache.WriteReq.accesses::total     30105551                       # number of WriteReq accesses(hits+misses) (Count)
system.cpu0.dcache.WriteReq.missRate::cpu0.data     0.074591                       # miss rate for WriteReq accesses (Ratio)
system.cpu0.dcache.WriteReq.missRate::total     0.074591                       # miss rate for WriteReq accesses (Ratio)
system.cpu0.dcache.WriteReq.avgMissLatency::cpu0.data 68640.807604                       # average WriteReq miss latency ((Tick/Count))
system.cpu0.dcache.WriteReq.avgMissLatency::total 68640.807604                       # average WriteReq miss latency ((Tick/Count))
system.cpu0.dcache.WriteReq.mshrHits::cpu0.data      1864963                       # number of WriteReq MSHR hits (Count)
system.cpu0.dcache.WriteReq.mshrHits::total      1864963                       # number of WriteReq MSHR hits (Count)
system.cpu0.dcache.WriteReq.mshrMisses::cpu0.data       380633                       # number of WriteReq MSHR misses (Count)
system.cpu0.dcache.WriteReq.mshrMisses::total       380633                       # number of WriteReq MSHR misses (Count)
system.cpu0.dcache.WriteReq.mshrUncacheable::cpu0.data        24143                       # number of WriteReq MSHR uncacheable (Count)
system.cpu0.dcache.WriteReq.mshrUncacheable::total        24143                       # number of WriteReq MSHR uncacheable (Count)
system.cpu0.dcache.WriteReq.mshrMissLatency::cpu0.data  29299869466                       # number of WriteReq MSHR miss ticks (Tick)
system.cpu0.dcache.WriteReq.mshrMissLatency::total  29299869466                       # number of WriteReq MSHR miss ticks (Tick)
system.cpu0.dcache.WriteReq.mshrMissRate::cpu0.data     0.012643                       # mshr miss rate for WriteReq accesses (Ratio)
system.cpu0.dcache.WriteReq.mshrMissRate::total     0.012643                       # mshr miss rate for WriteReq accesses (Ratio)
system.cpu0.dcache.WriteReq.avgMshrMissLatency::cpu0.data 76976.692683                       # average WriteReq mshr miss latency ((Tick/Count))
system.cpu0.dcache.WriteReq.avgMshrMissLatency::total 76976.692683                       # average WriteReq mshr miss latency ((Tick/Count))
system.cpu0.dcache.power_state.pwrStateResidencyTicks::UNDEFINED 1820283557004                       # Cumulative time (in ticks) in various power states (Tick)
system.cpu0.dcache.tags.tagsInUse          904.378390                       # Average ticks per tags in use ((Tick/Count))
system.cpu0.dcache.tags.totalRefs            68816558                       # Total number of references to valid blocks. (Count)
system.cpu0.dcache.tags.sampledRefs           1030248                       # Sample count of references to valid blocks. (Count)
system.cpu0.dcache.tags.avgRefs             66.796109                       # Average number of references to valid blocks. ((Count/Count))
system.cpu0.dcache.tags.warmupTick           92555352                       # The tick when the warmup percentage was hit. (Tick)
system.cpu0.dcache.tags.occupancies::cpu0.data   904.378390                       # Average occupied blocks per tick, per requestor ((Count/Tick))
system.cpu0.dcache.tags.avgOccs::cpu0.data     0.883182                       # Average percentage of cache occupancy ((Ratio/Tick))
system.cpu0.dcache.tags.avgOccs::total       0.883182                       # Average percentage of cache occupancy ((Ratio/Tick))
system.cpu0.dcache.tags.occupanciesTaskId::1024          878                       # Occupied blocks per task id (Count)
system.cpu0.dcache.tags.ageTaskId_1024::2           10                       # Occupied blocks per task id, per block age (Count)
system.cpu0.dcache.tags.ageTaskId_1024::3            2                       # Occupied blocks per task id, per block age (Count)
system.cpu0.dcache.tags.ageTaskId_1024::4          866                       # Occupied blocks per task id, per block age (Count)
system.cpu0.dcache.tags.ratioOccsTaskId::1024     0.857422                       # Ratio of occupied blocks and all blocks, per task id (Ratio)
system.cpu0.dcache.tags.tagAccesses         143511568                       # Number of tag accesses (Count)
system.cpu0.dcache.tags.dataAccesses        143511568                       # Number of data accesses (Count)
system.cpu0.dcache.tags.power_state.pwrStateResidencyTicks::UNDEFINED 1820283557004                       # Cumulative time (in ticks) in various power states (Tick)
system.cpu0.decode.idleCycles                52801282                       # Number of cycles decode is idle (Cycle)
system.cpu0.decode.blockedCycles            153651959                       # Number of cycles decode is blocked (Cycle)
[...]
system.pci_ide.disks.IdeDisk.dmaReadTxs             2                       # Number of DMA read transactions (not PRD). (Count)
system.pci_ide.disks.IdeDisk.dmaWriteFullPages          977                       # Number of full page size DMA writes. (Count)
system.pci_ide.disks.IdeDisk.dmaWriteBytes      4003840                       # Number of bytes transfered via DMA writes. (Byte)
system.pci_ide.disks.IdeDisk.dmaWriteTxs          979                       # Number of DMA write transactions. (Count)
system.pci_ide.power_state.pwrStateResidencyTicks::UNDEFINED 1820283557004                       # Cumulative time (in ticks) in various power states (Tick)
system.realview.bootmem.bytesRead::cpu0.inst          448                       # Number of bytes read from this memory (Byte)
system.realview.bootmem.bytesRead::cpu0.data           28                       # Number of bytes read from this memory (Byte)
system.realview.bootmem.bytesRead::cpu1.inst          512                       # Number of bytes read from this memory (Byte)
system.realview.bootmem.bytesRead::cpu1.data            8                       # Number of bytes read from this memory (Byte)
system.realview.bootmem.bytesRead::cpu2.inst          512                       # Number of bytes read from this memory (Byte)
system.realview.bootmem.bytesRead::cpu2.data            8                       # Number of bytes read from this memory (Byte)
system.realview.bootmem.bytesRead::cpu3.inst          512                       # Number of bytes read from this memory (Byte)
system.realview.bootmem.bytesRead::cpu3.data            8                       # Number of bytes read from this memory (Byte)
system.realview.bootmem.bytesRead::total         2036                       # Number of bytes read from this memory (Byte)
system.realview.bootmem.bytesInstRead::cpu0.inst          448                       # Number of instructions bytes read from this memory (Byte)
system.realview.bootmem.bytesInstRead::cpu1.inst          512                       # Number of instructions bytes read from this memory (Byte)
system.realview.bootmem.bytesInstRead::cpu2.inst          512                       # Number of instructions bytes read from this memory (Byte)
system.realview.bootmem.bytesInstRead::cpu3.inst          512                       # Number of instructions bytes read from this memory (Byte)
system.realview.bootmem.bytesInstRead::total         1984                       # Number of instructions bytes read from this memory (Byte)
system.realview.bootmem.numReads::cpu0.inst            7                       # Number of read requests responded to by this memory (Count)
system.realview.bootmem.numReads::cpu0.data            4                       # Number of read requests responded to by this memory (Count)
system.realview.bootmem.numReads::cpu1.inst            8                       # Number of read requests responded to by this memory (Count)
system.realview.bootmem.numReads::cpu1.data            1                       # Number of read requests responded to by this memory (Count)
system.realview.bootmem.numReads::cpu2.inst            8                       # Number of read requests responded to by this memory (Count)
system.realview.bootmem.numReads::cpu2.data            1                       # Number of read requests responded to by this memory (Count)
system.realview.bootmem.numReads::cpu3.inst            8                       # Number of read requests responded to by this memory (Count)
system.realview.bootmem.numReads::cpu3.data            1                       # Number of read requests responded to by this memory (Count)
system.realview.bootmem.numReads::total            38                       # Number of read requests responded to by this memory (Count)
system.realview.bootmem.bwRead::cpu0.inst          246                       # Total read bandwidth from this memory ((Byte/Second))
system.realview.bootmem.bwRead::cpu0.data           15                       # Total read bandwidth from this memory ((Byte/Second))
system.realview.bootmem.bwRead::cpu1.inst          281                       # Total read bandwidth from this memory ((Byte/Second))
system.realview.bootmem.bwRead::cpu1.data            4                       # Total read bandwidth from this memory ((Byte/Second))
system.realview.bootmem.bwRead::cpu2.inst          281                       # Total read bandwidth from this memory ((Byte/Second))
system.realview.bootmem.bwRead::cpu2.data            4                       # Total read bandwidth from this memory ((Byte/Second))
system.realview.bootmem.bwRead::cpu3.inst          281                       # Total read bandwidth from this memory ((Byte/Second))
system.realview.bootmem.bwRead::cpu3.data            4                       # Total read bandwidth from this memory ((Byte/Second))
system.realview.bootmem.bwRead::total            1119                       # Total read bandwidth from this memory ((Byte/Second))
system.realview.bootmem.bwInstRead::cpu0.inst          246                       # Instruction read bandwidth from this memory ((Byte/Second))
system.realview.bootmem.bwInstRead::cpu1.inst          281                       # Instruction read bandwidth from this memory ((Byte/Second))
system.realview.bootmem.bwInstRead::cpu2.inst          281                       # Instruction read bandwidth from this memory ((Byte/Second))
system.realview.bootmem.bwInstRead::cpu3.inst          281                       # Instruction read bandwidth from this memory ((Byte/Second))
system.realview.bootmem.bwInstRead::total         1090                       # Instruction read bandwidth from this memory ((Byte/Second))
system.realview.bootmem.bwTotal::cpu0.inst          246                       # Total bandwidth to/from this memory ((Byte/Second))
system.realview.bootmem.bwTotal::cpu0.data           15                       # Total bandwidth to/from this memory ((Byte/Second))
system.realview.bootmem.bwTotal::cpu1.inst          281                       # Total bandwidth to/from this memory ((Byte/Second))
system.realview.bootmem.bwTotal::cpu1.data            4                       # Total bandwidth to/from this memory ((Byte/Second))
system.realview.bootmem.bwTotal::cpu2.inst          281                       # Total bandwidth to/from this memory ((Byte/Second))
system.realview.bootmem.bwTotal::cpu2.data            4                       # Total bandwidth to/from this memory ((Byte/Second))
system.realview.bootmem.bwTotal::cpu3.inst          281                       # Total bandwidth to/from this memory ((Byte/Second))
system.realview.bootmem.bwTotal::cpu3.data            4                       # Total bandwidth to/from this memory ((Byte/Second))
system.realview.bootmem.bwTotal::total           1119                       # Total bandwidth to/from this memory ((Byte/Second))
system.realview.bootmem.power_state.pwrStateResidencyTicks::UNDEFINED 1820283557004                       # Cumulative time (in ticks) in various power states (Tick)
system.realview.clock24MHz.clock                41667                       # Clock period in ticks (Tick)
system.realview.clock32KHz.clock             31250000                       # Clock period in ticks (Tick)
system.realview.dcc.osc_cpu.clock               16667                       # Clock period in ticks (Tick)
system.realview.dcc.osc_ddr.clock               25000                       # Clock period in ticks (Tick)
system.realview.dcc.osc_hsbm.clock              25000                       # Clock period in ticks (Tick)
system.realview.dcc.osc_pxl.clock               42105                       # Clock period in ticks (Tick)
system.realview.dcc.osc_smb.clock               20000                       # Clock period in ticks (Tick)
system.realview.dcc.osc_sys.clock               16667                       # Clock period in ticks (Tick)
system.realview.el2_watchdog.power_state.pwrStateResidencyTicks::UNDEFINED 1820283557004                       # Cumulative time (in ticks) in various power states (Tick)
system.realview.energy_ctrl.power_state.pwrStateResidencyTicks::UNDEFINED 1820283557004                       # Cumulative time (in ticks) in various power states (Tick)
system.realview.flash0.power_state.pwrStateResidencyTicks::UNDEFINED 1820283557004                       # Cumulative time (in ticks) in various power states (Tick)
system.realview.flash1.power_state.pwrStateResidencyTicks::UNDEFINED 1820283557004                       # Cumulative time (in ticks) in various power states (Tick)
system.realview.generic_timer_mem.frames0.power_state.pwrStateResidencyTicks::UNDEFINED 1820283557004                       # Cumulative time (in ticks) in various power states (Tick)
system.realview.generic_timer_mem.frames1.power_state.pwrStateResidencyTicks::UNDEFINED 1820283557004                       # Cumulative time (in ticks) in various power states (Tick)
system.realview.generic_timer_mem.power_state.pwrStateResidencyTicks::UNDEFINED 1820283557004                       # Cumulative time (in ticks) in various power states (Tick)
system.realview.gic.power_state.pwrStateResidencyTicks::UNDEFINED 1820283557004                       # Cumulative time (in ticks) in various power states (Tick)
system.realview.gicv2m.power_state.pwrStateResidencyTicks::UNDEFINED 1820283557004                       # Cumulative time (in ticks) in various power states (Tick)
system.realview.io_voltage.voltage           3.300000                       # Voltage in Volts (Volt)
system.realview.kmi0.power_state.pwrStateResidencyTicks::UNDEFINED 1820283557004                       # Cumulative time (in ticks) in various power states (Tick)
system.realview.kmi1.power_state.pwrStateResidencyTicks::UNDEFINED 1820283557004                       # Cumulative time (in ticks) in various power states (Tick)
system.realview.mcc.osc_clcd.clock              42105                       # Clock period in ticks (Tick)
system.realview.mcc.osc_mcc.clock               20000                       # Clock period in ticks (Tick)
system.realview.mcc.osc_peripheral.clock        41667                       # Clock period in ticks (Tick)
system.realview.mcc.osc_system_bus.clock        41667                       # Clock period in ticks (Tick)
system.realview.non_trusted_sram.power_state.pwrStateResidencyTicks::UNDEFINED 1820283557004                       # Cumulative time (in ticks) in various power states (Tick)
system.realview.pci_host.power_state.pwrStateResidencyTicks::UNDEFINED 1820283557004                       # Cumulative time (in ticks) in various power states (Tick)
system.realview.pwr_ctrl.power_state.pwrStateResidencyTicks::UNDEFINED 1820283557004                       # Cumulative time (in ticks) in various power states (Tick)
system.realview.realview_io.power_state.pwrStateResidencyTicks::UNDEFINED 1820283557004                       # Cumulative time (in ticks) in various power states (Tick)
system.realview.rtc.power_state.pwrStateResidencyTicks::UNDEFINED 1820283557004                       # Cumulative time (in ticks) in various power states (Tick)
system.realview.system_watchdog.power_state.pwrStateResidencyTicks::UNDEFINED 1820283557004                       # Cumulative time (in ticks) in various power states (Tick)
system.realview.trusted_sram.power_state.pwrStateResidencyTicks::UNDEFINED 1820283557004                       # Cumulative time (in ticks) in various power states (Tick)
system.realview.trusted_watchdog.power_state.pwrStateResidencyTicks::UNDEFINED 1820283557004                       # Cumulative time (in ticks) in various power states (Tick)
system.realview.uart0.power_state.pwrStateResidencyTicks::UNDEFINED 1820283557004                       # Cumulative time (in ticks) in various power states (Tick)
system.realview.uart1.power_state.pwrStateResidencyTicks::UNDEFINED 1820283557004                       # Cumulative time (in ticks) in various power states (Tick)
system.realview.uart2.power_state.pwrStateResidencyTicks::UNDEFINED 1820283557004                       # Cumulative time (in ticks) in various power states (Tick)
system.realview.uart3.power_state.pwrStateResidencyTicks::UNDEFINED 1820283557004                       # Cumulative time (in ticks) in various power states (Tick)
system.realview.vgic.power_state.pwrStateResidencyTicks::UNDEFINED 1820283557004                       # Cumulative time (in ticks) in various power states (Tick)
system.realview.vio0.power_state.pwrStateResidencyTicks::UNDEFINED 1820283557004                       # Cumulative time (in ticks) in various power states (Tick)
system.realview.vio1.power_state.pwrStateResidencyTicks::UNDEFINED 1820283557004                       # Cumulative time (in ticks) in various power states (Tick)
system.realview.vram.power_state.pwrStateResidencyTicks::UNDEFINED 1820283557004                       # Cumulative time (in ticks) in various power states (Tick)
system.realview.watchdog.power_state.pwrStateResidencyTicks::UNDEFINED 1820283557004                       # Cumulative time (in ticks) in various power states (Tick)
system.tol3bus.transDist::ReadReq               30398                       # Transaction distribution (Count)
system.tol3bus.transDist::ReadResp             248994                       # Transaction distribution (Count)
system.tol3bus.transDist::WriteReq              26877                       # Transaction distribution (Count)
system.tol3bus.transDist::WriteResp             26877                       # Transaction distribution (Count)
system.tol3bus.transDist::WritebackDirty       882185                       # Transaction distribution (Count)
system.tol3bus.transDist::WriteClean             3527                       # Transaction distribution (Count)
system.tol3bus.transDist::CleanEvict           123109                       # Transaction distribution (Count)
system.tol3bus.transDist::UpgradeReq            26178                       # Transaction distribution (Count)
system.tol3bus.transDist::SCUpgradeReq           4097                       # Transaction distribution (Count)
system.tol3bus.transDist::UpgradeResp           15953                       # Transaction distribution (Count)
system.tol3bus.transDist::ReadExReq            405706                       # Transaction distribution (Count)
system.tol3bus.transDist::ReadExResp           405621                       # Transaction distribution (Count)
system.tol3bus.transDist::ReadSharedReq        218606                       # Transaction distribution (Count)
system.tol3bus.transDist::CleanInvalidReq         9685                       # Transaction distribution (Count)
system.tol3bus.transDist::CleanInvalidResp         9685                       # Transaction distribution (Count)
system.tol3bus.transDist::InvalidateReq        207874                       # Transaction distribution (Count)
system.tol3bus.transDist::InvalidateResp       206235                       # Transaction distribution (Count)
system.tol3bus.pktCount_system.cpu0.l2cache.mem_side_port::system.l3.cpu_side_port      2415162                       # Packet count per connected requestor and responder (Count)
system.tol3bus.pktCount_system.cpu2.l2cache.mem_side_port::system.l3.cpu_side_port       111070                       # Packet count per connected requestor and responder (Count)
system.tol3bus.pktCount::total                2526232                       # Packet count per connected requestor and responder (Count)
system.tol3bus.pktSize_system.cpu0.l2cache.mem_side_port::system.l3.cpu_side_port     77931830                       # Cumulative packet size per connected requestor and responder (Byte)
system.tol3bus.pktSize_system.cpu2.l2cache.mem_side_port::system.l3.cpu_side_port      1911302                       # Cumulative packet size per connected requestor and responder (Byte)
system.tol3bus.pktSize::total                79843132                       # Cumulative packet size per connected requestor and responder (Byte)
system.tol3bus.snoops                          350500                       # Total snoops (Count)
system.tol3bus.snoopTraffic                  17066176                       # Total snoop traffic (Byte)
system.tol3bus.snoopFanout::samples           1211966                       # Request fanout histogram (Count)
system.tol3bus.snoopFanout::mean             0.063296                       # Request fanout histogram (Count)
system.tol3bus.snoopFanout::stdev            0.244579                       # Request fanout histogram (Count)
system.tol3bus.snoopFanout::underflows              0      0.00%      0.00% # Request fanout histogram (Count)
system.tol3bus.snoopFanout::0                 1135575     93.70%     93.70% # Request fanout histogram (Count)
system.tol3bus.snoopFanout::1                   76070      6.28%     99.97% # Request fanout histogram (Count)
system.tol3bus.snoopFanout::2                     321      0.03%    100.00% # Request fanout histogram (Count)
system.tol3bus.snoopFanout::overflows               0      0.00%    100.00% # Request fanout histogram (Count)
system.tol3bus.snoopFanout::min_value               0                       # Request fanout histogram (Count)
system.tol3bus.snoopFanout::max_value               2                       # Request fanout histogram (Count)
system.tol3bus.snoopFanout::total             1211966                       # Request fanout histogram (Count)
system.tol3bus.power_state.pwrStateResidencyTicks::UNDEFINED 1820283557004                       # Cumulative time (in ticks) in various power states (Tick)
system.tol3bus.reqLayer0.occupancy         3340550479                       # Layer occupancy (ticks) (Tick)
system.tol3bus.reqLayer0.utilization              0.0                       # Layer utilization (Ratio)
system.tol3bus.respLayer0.occupancy        2260263232                       # Layer occupancy (ticks) (Tick)
system.tol3bus.respLayer0.utilization             0.0                       # Layer utilization (Ratio)
system.tol3bus.respLayer1.occupancy         156105261                       # Layer occupancy (ticks) (Tick)
system.tol3bus.respLayer1.utilization             0.0                       # Layer utilization (Ratio)
system.tol3bus.snoopLayer0.occupancy         12885351                       # Layer occupancy (ticks) (Tick)
system.tol3bus.snoopLayer0.utilization            0.0                       # Layer utilization (Ratio)
system.tol3bus.snoop_filter.totRequests       1582646                       # Total number of requests made to the snoop filter. (Count)
system.tol3bus.snoop_filter.hitSingleRequests       763055                       # Number of requests hitting in the snoop filter with a single holder of the requested data. (Count)
system.tol3bus.snoop_filter.hitMultiRequests        39068                       # Number of requests hitting in the snoop filter with multiple (>1) holders of the requested data. (Count)
system.tol3bus.snoop_filter.totSnoops           13395                       # Total number of snoops made to the snoop filter. (Count)
system.tol3bus.snoop_filter.hitSingleSnoops        13074                       # Number of snoops hitting in the snoop filter with a single holder of the requested data. (Count)
system.tol3bus.snoop_filter.hitMultiSnoops          321                       # Number of snoops hitting in the snoop filter with multiple (>1) holders of the requested data. (Count)
system.voltage_domain.voltage                       1                       # Voltage in Volts (Volt)
system.workload.inst.arm                            0                       # number of arm instructions executed (Count)
system.workload.inst.quiesce                    81741                       # number of quiesce instructions executed (Count)

---------- End Simulation Statistics   ----------
